
This summary information was generated by ElastoDyn on 08-Nov-2023 at 22:39:58.


Turbine features:

            Upwind, 3-bladed rotor with rigid hub.
            The model has 14 of 24 DOFs active (enabled) at start-up.
 Disabled   Platform horizontal surge translation DOF 
 Disabled   Platform horizontal sway translation DOF 
 Disabled   Platform vertical heave translation DOF 
 Disabled   Platform roll tilt rotation DOF 
 Disabled   Platform pitch tilt rotation DOF 
 Disabled   Platform yaw rotation DOF 
 Enabled    1st tower fore-aft bending mode DOF 
 Enabled    1st tower side-to-side bending mode DOF 
 Enabled    2nd tower fore-aft bending mode DOF 
 Enabled    2nd tower side-to-side bending mode DOF 
 Disabled   Nacelle yaw DOF 
 Disabled   Rotor-furl DOF 
 Enabled    Variable speed generator DOF 
 Disabled   Drivetrain rotational-flexibility DOF 
 Disabled   Tail-furl DOF 
 Enabled    1st flapwise bending-mode DOF of blade 1 
 Enabled    1st edgewise bending-mode DOF of blade 1 
 Enabled    2nd flapwise bending-mode DOF of blade 1 
 Enabled    1st flapwise bending-mode DOF of blade 2 
 Enabled    1st edgewise bending-mode DOF of blade 2 
 Enabled    2nd flapwise bending-mode DOF of blade 2 
 Enabled    1st flapwise bending-mode DOF of blade 3 
 Enabled    1st edgewise bending-mode DOF of blade 3 
 Enabled    2nd flapwise bending-mode DOF of blade 3 


Time steps:

    Structural            (s)        0.01000000


Some calculated parameters:

    Hub-Height            (m)           165.824
    Flexible Tower Length (m)           150.000
    Flexible Blade Length (m)           143.100


Rotor mass properties:

    Rotor Mass            (kg)       454531.562
    Rotor Inertia         (kg-m^2)733917120.000
                                        Blade 1      Blade 2      Blade 3
                                        -------      -------      -------
    Mass                  (kg)        99871.328    99871.328    99871.328
    Second Mass Moment    (kg-m^2)222126400.000222126400.000222126400.000
    First Mass Moment     (kg-m)    3396806.250  3396806.250  3396806.250
    Center of Mass        (m)            34.012       34.012       34.012


Additional mass properties:

    Tower-top Mass        (kg)      1182178.750
    Tower Mass            (kg)      1700144.750
    Platform Mass         (kg)         9999.900
    Mass Incl. Platform   (kg)      2892323.500


Interpolated tower properties:

Node  TwFract   HNodes  DHNodes  TMassDen    FAStiff    SSStiff
 (-)      (-)      (m)      (m)    (kg/m)     (Nm^2)     (Nm^2)
   1    0.025    3.750    7.500 22419.107  6.600E+12  6.600E+12
   2    0.075   11.250    7.500 21244.479  6.260E+12  6.260E+12
   3    0.125   18.750    7.500 20066.664  5.919E+12  5.919E+12
   4    0.175   26.250    7.500 18880.320  5.574E+12  5.574E+12
   5    0.225   33.750    7.500 17693.191  5.228E+12  5.228E+12
   6    0.275   41.250    7.500 16488.914  4.877E+12  4.877E+12
   7    0.325   48.750    7.500 15284.638  4.525E+12  4.525E+12
   8    0.375   56.250    7.500 14066.747  4.168E+12  4.168E+12
   9    0.425   63.750    7.500 12845.781  3.810E+12  3.810E+12
  10    0.475   71.250    7.500 11627.740  3.452E+12  3.452E+12
  11    0.525   78.750    7.500 10411.751  3.094E+12  3.094E+12
  12    0.575   86.250    7.500  9212.416  2.740E+12  2.740E+12
  13    0.625   93.750    7.500  8042.733  2.394E+12  2.394E+12
  14    0.675  101.250    7.500  6886.320  2.052E+12  2.052E+12
  15    0.725  108.750    7.500  5817.463  1.735E+12  1.735E+12
  16    0.775  116.250    7.500  4748.606  1.417E+12  1.417E+12
  17    0.825  123.750    7.500  3814.420  1.139E+12  1.139E+12
  18    0.875  131.250    7.500  2894.616  8.650E+11  8.650E+11
  19    0.925  138.750    7.500  2322.535  6.435E+11  6.435E+11
  20    0.975  146.250    7.500  1917.533  4.472E+11  4.472E+11


Interpolated blade 1 properties:

Node  BlFract   RNodes  DRNodes PitchAxis  StrcTwst  BMassDen    FlpStff    EdgStff
 (-)      (-)      (m)      (m)       (-)     (deg)    (kg/m)     (Nm^2)     (Nm^2)
   1    0.025    6.977    7.155     0.486    15.548  3324.314  1.829E+11  1.819E+11
   2    0.075   14.132    7.155     0.441    14.483  2265.415  1.111E+11  1.222E+11
   3    0.125   21.288    7.155     0.396    12.294  1612.450  5.724E+10  8.513E+10
   4    0.175   28.443    7.155     0.358     9.815   990.170  3.925E+10  6.084E+10
   5    0.225   35.598    7.155     0.331     7.817   696.394  2.887E+10  4.678E+10
   6    0.275   42.753    7.155     0.317     6.258   601.532  2.111E+10  3.999E+10
   7    0.325   49.908    7.155     0.309     4.838   578.826  1.822E+10  3.486E+10
   8    0.375   57.062    7.155     0.303     3.696   557.202  1.374E+10  3.002E+10
   9    0.425   64.217    7.155     0.297     2.794   532.216  1.110E+10  2.633E+10
  10    0.475   71.372    7.155     0.291     2.034   502.609  8.512E+09  2.287E+10
  11    0.525   78.527    7.155     0.288     1.373   473.281  6.155E+09  1.974E+10
  12    0.575   85.682    7.155     0.288     0.807   428.833  4.531E+09  1.496E+10
  13    0.625   92.837    7.155     0.291     0.314   363.220  3.266E+09  8.771E+09
  14    0.675   99.992    7.155     0.295    -0.190   305.916  2.343E+09  4.724E+09
  15    0.725  107.147    7.155     0.302    -0.848   253.862  1.493E+09  3.015E+09
  16    0.775  114.302    7.155     0.310    -1.616   189.795  8.692E+08  1.832E+09
  17    0.825  121.457    7.155     0.318    -2.119   125.367  4.670E+08  9.688E+08
  18    0.875  128.612    7.155     0.329    -2.158    79.212  2.340E+08  5.268E+08
  19    0.925  135.767    7.155     0.342    -1.979    50.337  9.402E+07  2.765E+08
  20    0.975  142.922    7.155     0.358    -1.557    27.306  2.197E+07  1.029E+08


Interpolated blade 2 properties:

Node  BlFract   RNodes  DRNodes PitchAxis  StrcTwst  BMassDen    FlpStff    EdgStff
 (-)      (-)      (m)      (m)       (-)     (deg)    (kg/m)     (Nm^2)     (Nm^2)
   1    0.025    6.977    7.155     0.486    15.548  3324.314  1.829E+11  1.819E+11
   2    0.075   14.132    7.155     0.441    14.483  2265.415  1.111E+11  1.222E+11
   3    0.125   21.288    7.155     0.396    12.294  1612.450  5.724E+10  8.513E+10
   4    0.175   28.443    7.155     0.358     9.815   990.170  3.925E+10  6.084E+10
   5    0.225   35.598    7.155     0.331     7.817   696.394  2.887E+10  4.678E+10
   6    0.275   42.753    7.155     0.317     6.258   601.532  2.111E+10  3.999E+10
   7    0.325   49.908    7.155     0.309     4.838   578.826  1.822E+10  3.486E+10
   8    0.375   57.062    7.155     0.303     3.696   557.202  1.374E+10  3.002E+10
   9    0.425   64.217    7.155     0.297     2.794   532.216  1.110E+10  2.633E+10
  10    0.475   71.372    7.155     0.291     2.034   502.609  8.512E+09  2.287E+10
  11    0.525   78.527    7.155     0.288     1.373   473.281  6.155E+09  1.974E+10
  12    0.575   85.682    7.155     0.288     0.807   428.833  4.531E+09  1.496E+10
  13    0.625   92.837    7.155     0.291     0.314   363.220  3.266E+09  8.771E+09
  14    0.675   99.992    7.155     0.295    -0.190   305.916  2.343E+09  4.724E+09
  15    0.725  107.147    7.155     0.302    -0.848   253.862  1.493E+09  3.015E+09
  16    0.775  114.302    7.155     0.310    -1.616   189.795  8.692E+08  1.832E+09
  17    0.825  121.457    7.155     0.318    -2.119   125.367  4.670E+08  9.688E+08
  18    0.875  128.612    7.155     0.329    -2.158    79.212  2.340E+08  5.268E+08
  19    0.925  135.767    7.155     0.342    -1.979    50.337  9.402E+07  2.765E+08
  20    0.975  142.922    7.155     0.358    -1.557    27.306  2.197E+07  1.029E+08


Interpolated blade 3 properties:

Node  BlFract   RNodes  DRNodes PitchAxis  StrcTwst  BMassDen    FlpStff    EdgStff
 (-)      (-)      (m)      (m)       (-)     (deg)    (kg/m)     (Nm^2)     (Nm^2)
   1    0.025    6.977    7.155     0.486    15.548  3324.314  1.829E+11  1.819E+11
   2    0.075   14.132    7.155     0.441    14.483  2265.415  1.111E+11  1.222E+11
   3    0.125   21.288    7.155     0.396    12.294  1612.450  5.724E+10  8.513E+10
   4    0.175   28.443    7.155     0.358     9.815   990.170  3.925E+10  6.084E+10
   5    0.225   35.598    7.155     0.331     7.817   696.394  2.887E+10  4.678E+10
   6    0.275   42.753    7.155     0.317     6.258   601.532  2.111E+10  3.999E+10
   7    0.325   49.908    7.155     0.309     4.838   578.826  1.822E+10  3.486E+10
   8    0.375   57.062    7.155     0.303     3.696   557.202  1.374E+10  3.002E+10
   9    0.425   64.217    7.155     0.297     2.794   532.216  1.110E+10  2.633E+10
  10    0.475   71.372    7.155     0.291     2.034   502.609  8.512E+09  2.287E+10
  11    0.525   78.527    7.155     0.288     1.373   473.281  6.155E+09  1.974E+10
  12    0.575   85.682    7.155     0.288     0.807   428.833  4.531E+09  1.496E+10
  13    0.625   92.837    7.155     0.291     0.314   363.220  3.266E+09  8.771E+09
  14    0.675   99.992    7.155     0.295    -0.190   305.916  2.343E+09  4.724E+09
  15    0.725  107.147    7.155     0.302    -0.848   253.862  1.493E+09  3.015E+09
  16    0.775  114.302    7.155     0.310    -1.616   189.795  8.692E+08  1.832E+09
  17    0.825  121.457    7.155     0.318    -2.119   125.367  4.670E+08  9.688E+08
  18    0.875  128.612    7.155     0.329    -2.158    79.212  2.340E+08  5.268E+08
  19    0.925  135.767    7.155     0.342    -1.979    50.337  9.402E+07  2.765E+08
  20    0.975  142.922    7.155     0.358    -1.557    27.306  2.197E+07  1.029E+08


Requested Outputs:


 Col   Parameter            Units               
 ---   ---------------      ---------------     
   0   Time                 (s)                 
   1   BldPitch1            (deg)               
   2   BldPitch2            (deg)               
   3   BldPitch3            (deg)               
   4   Azimuth              (deg)               
   5   RotSpeed             (rpm)               
   6   RotTorq              (kN-m)              
   7   RotPwr               (kW)                
   8   HSSBrTq              (kN-m)              
   9   Tip2Twr1             (m)                 
  10   Tip2Twr2             (m)                 
  11   Tip2Twr3             (m)                 
  12   RootFxb1             (kN)                
  13   RootFyb1             (kN)                
  14   RootFzb1             (kN)                
  15   RootMEdg1            (kN-m)              
  16   RootMFlp1            (kN-m)              
  17   RootMzb1             (kN-m)              
  18   RootFxc1             (kN)                
  19   RootFyc1             (kN)                
  20   RootFzc1             (kN)                
  21   RootMzc1             (kN-m)              
  22   RootMzc2             (kN-m)              
  23   RootMzc3             (kN-m)              
  24   RootMIP1             (kN-m)              
  25   RootMOoP1            (kN-m)              
  26   RotThrust            (kN)                
  27   LSShftFya            (kN)                
  28   LSShftFza            (kN)                
  29   LSShftMxa            (kN-m)              
  30   LSSTipMya            (kN-m)              
  31   LSSTipMza            (kN-m)              
  32   LSShftFys            (kN)                
  33   LSShftFzs            (kN)                
  34   LSSTipMys            (kN-m)              
  35   LSSTipMzs            (kN-m)              
  36   YawBrFxp             (kN)                
  37   YawBrFyp             (kN)                
  38   YawBrFzp             (kN)                
  39   YawBrMxp             (kN-m)              
  40   YawBrMyp             (kN-m)              
  41   YawBrMzp             (kN-m)              
  42   YawBrRDyt            (deg)               
  43   NcIMUTAxs            (m/s^2)             
  44   NcIMUTAys            (m/s^2)             
  45   NcIMUTAzs            (m/s^2)             
  46   TwrBsFxt             (kN)                
  47   TwrBsFyt             (kN)                
  48   TwrBsFzt             (kN)                
  49   TwrBsMxt             (kN-m)              
  50   TwrBsMyt             (kN-m)              
  51   TwrBsMzt             (kN-m)              


  Requested Output Channels at each blade station:
 Col   Parameter            Units               
 ---   ---------------      ---------------     
