
This summary file was generated by HydroDyn  on 05-Nov-2023 at 21:55:55.




 Wave Kinematics


       m              k          Omega[m]       Direction    REAL(DFT{WaveElev})  IMAG(DFT{WaveElev})
      (-)           (1/m)        (rad/s)          (deg)             (m)                  (m)         
      -7199     1.60927E+01    -1.25646E+01     0.00000E+00     0.00000E+00          0.00000E+00
      -7198     1.60883E+01    -1.25629E+01     0.00000E+00     0.00000E+00          0.00000E+00
      -7197     1.60838E+01    -1.25611E+01     0.00000E+00     0.00000E+00          0.00000E+00
      -7196     1.60793E+01    -1.25594E+01     0.00000E+00     0.00000E+00          0.00000E+00
      -7195     1.60749E+01    -1.25576E+01     0.00000E+00     0.00000E+00          0.00000E+00
      -7194     1.60704E+01    -1.25559E+01     0.00000E+00     0.00000E+00          0.00000E+00
      -7193     1.60659E+01    -1.25542E+01     0.00000E+00     0.00000E+00          0.00000E+00
      -7192     1.60615E+01    -1.25524E+01     0.00000E+00     0.00000E+00          0.00000E+00
      -7191     1.60570E+01    -1.25507E+01     0.00000E+00     0.00000E+00          0.00000E+00
      -7190     1.60525E+01    -1.25489E+01     0.00000E+00     0.00000E+00          0.00000E+00
      -7189     1.60481E+01    -1.25472E+01     0.00000E+00     0.00000E+00          0.00000E+00
      -7188     1.60436E+01    -1.25454E+01     0.00000E+00     0.00000E+00          0.00000E+00
      -7187     1.60391E+01    -1.25437E+01     0.00000E+00     0.00000E+00          0.00000E+00
      -7186     1.60347E+01    -1.25419E+01     0.00000E+00     0.00000E+00          0.00000E+00
      -7185     1.60302E+01    -1.25402E+01     0.00000E+00     0.00000E+00          0.00000E+00
      -7184     1.60258E+01    -1.25384E+01     0.00000E+00     0.00000E+00          0.00000E+00
      -7183     1.60213E+01    -1.25367E+01     0.00000E+00     0.00000E+00          0.00000E+00
      -7182     1.60168E+01    -1.25350E+01     0.00000E+00     0.00000E+00          0.00000E+00
      -7181     1.60124E+01    -1.25332E+01     0.00000E+00     0.00000E+00          0.00000E+00
      -7180     1.60079E+01    -1.25315E+01     0.00000E+00     0.00000E+00          0.00000E+00
      -7179     1.60035E+01    -1.25297E+01     0.00000E+00     0.00000E+00          0.00000E+00
      -7178     1.59990E+01    -1.25280E+01     0.00000E+00     0.00000E+00          0.00000E+00
      -7177     1.59945E+01    -1.25262E+01     0.00000E+00     0.00000E+00          0.00000E+00
      -7176     1.59901E+01    -1.25245E+01     0.00000E+00     0.00000E+00          0.00000E+00
      -7175     1.59856E+01    -1.25227E+01     0.00000E+00     0.00000E+00          0.00000E+00
      -7174     1.59812E+01    -1.25210E+01     0.00000E+00     0.00000E+00          0.00000E+00
      -7173     1.59767E+01    -1.25192E+01     0.00000E+00     0.00000E+00          0.00000E+00
      -7172     1.59723E+01    -1.25175E+01     0.00000E+00     0.00000E+00          0.00000E+00
      -7171     1.59678E+01    -1.25158E+01     0.00000E+00     0.00000E+00          0.00000E+00
      -7170     1.59634E+01    -1.25140E+01     0.00000E+00     0.00000E+00          0.00000E+00
      -7169     1.59589E+01    -1.25123E+01     0.00000E+00     0.00000E+00          0.00000E+00
      -7168     1.59544E+01    -1.25105E+01     0.00000E+00     0.00000E+00          0.00000E+00
      -7167     1.59500E+01    -1.25088E+01     0.00000E+00     0.00000E+00          0.00000E+00
      -7166     1.59455E+01    -1.25070E+01     0.00000E+00     0.00000E+00          0.00000E+00
      -7165     1.59411E+01    -1.25053E+01     0.00000E+00     0.00000E+00          0.00000E+00
      -7164     1.59366E+01    -1.25035E+01     0.00000E+00     0.00000E+00          0.00000E+00
      -7163     1.59322E+01    -1.25018E+01     0.00000E+00     0.00000E+00          0.00000E+00
      -7162     1.59277E+01    -1.25000E+01     0.00000E+00     0.00000E+00          0.00000E+00
      -7161     1.59233E+01    -1.24983E+01     0.00000E+00     0.00000E+00          0.00000E+00
      -7160     1.59189E+01    -1.24966E+01     0.00000E+00     0.00000E+00          0.00000E+00
      -7159     1.59144E+01    -1.24948E+01     0.00000E+00     0.00000E+00          0.00000E+00
      -7158     1.59100E+01    -1.24931E+01     0.00000E+00     0.00000E+00          0.00000E+00
      -7157     1.59055E+01    -1.24913E+01     0.00000E+00     0.00000E+00          0.00000E+00
      -7156     1.59011E+01    -1.24896E+01     0.00000E+00     0.00000E+00          0.00000E+00
      -7155     1.58966E+01    -1.24878E+01     0.00000E+00     0.00000E+00          0.00000E+00
      -7154     1.58922E+01    -1.24861E+01     0.00000E+00     0.00000E+00          0.00000E+00
      -7153     1.58877E+01    -1.24843E+01     0.00000E+00     0.00000E+00          0.00000E+00
      -7152     1.58833E+01    -1.24826E+01     0.00000E+00     0.00000E+00          0.00000E+00
      -7151     1.58789E+01    -1.24809E+01     0.00000E+00     0.00000E+00          0.00000E+00
      -7150     1.58744E+01    -1.24791E+01     0.00000E+00     0.00000E+00          0.00000E+00
      -7149     1.58700E+01    -1.24774E+01     0.00000E+00     0.00000E+00          0.00000E+00
      -7148     1.58655E+01    -1.24756E+01     0.00000E+00     0.00000E+00          0.00000E+00
      -7147     1.58611E+01    -1.24739E+01     0.00000E+00     0.00000E+00          0.00000E+00
      -7146     1.58567E+01    -1.24721E+01     0.00000E+00     0.00000E+00          0.00000E+00
      -7145     1.58522E+01    -1.24704E+01     0.00000E+00     0.00000E+00          0.00000E+00
      -7144     1.58478E+01    -1.24686E+01     0.00000E+00     0.00000E+00          0.00000E+00
      -7143     1.58434E+01    -1.24669E+01     0.00000E+00     0.00000E+00          0.00000E+00
      -7142     1.58389E+01    -1.24651E+01     0.00000E+00     0.00000E+00          0.00000E+00
      -7141     1.58345E+01    -1.24634E+01     0.00000E+00     0.00000E+00          0.00000E+00
      -7140     1.58300E+01    -1.24617E+01     0.00000E+00     0.00000E+00          0.00000E+00
      -7139     1.58256E+01    -1.24599E+01     0.00000E+00     0.00000E+00          0.00000E+00
      -7138     1.58212E+01    -1.24582E+01     0.00000E+00     0.00000E+00          0.00000E+00
      -7137     1.58167E+01    -1.24564E+01     0.00000E+00     0.00000E+00          0.00000E+00
      -7136     1.58123E+01    -1.24547E+01     0.00000E+00     0.00000E+00          0.00000E+00
      -7135     1.58079E+01    -1.24529E+01     0.00000E+00     0.00000E+00          0.00000E+00
      -7134     1.58035E+01    -1.24512E+01     0.00000E+00     0.00000E+00          0.00000E+00
      -7133     1.57990E+01    -1.24494E+01     0.00000E+00     0.00000E+00          0.00000E+00
      -7132     1.57946E+01    -1.24477E+01     0.00000E+00     0.00000E+00          0.00000E+00
      -7131     1.57902E+01    -1.24459E+01     0.00000E+00     0.00000E+00          0.00000E+00
      -7130     1.57857E+01    -1.24442E+01     0.00000E+00     0.00000E+00          0.00000E+00
      -7129     1.57813E+01    -1.24425E+01     0.00000E+00     0.00000E+00          0.00000E+00
      -7128     1.57769E+01    -1.24407E+01     0.00000E+00     0.00000E+00          0.00000E+00
      -7127     1.57725E+01    -1.24390E+01     0.00000E+00     0.00000E+00          0.00000E+00
      -7126     1.57680E+01    -1.24372E+01     0.00000E+00     0.00000E+00          0.00000E+00
      -7125     1.57636E+01    -1.24355E+01     0.00000E+00     0.00000E+00          0.00000E+00
      -7124     1.57592E+01    -1.24337E+01     0.00000E+00     0.00000E+00          0.00000E+00
      -7123     1.57548E+01    -1.24320E+01     0.00000E+00     0.00000E+00          0.00000E+00
      -7122     1.57503E+01    -1.24302E+01     0.00000E+00     0.00000E+00          0.00000E+00
      -7121     1.57459E+01    -1.24285E+01     0.00000E+00     0.00000E+00          0.00000E+00
      -7120     1.57415E+01    -1.24267E+01     0.00000E+00     0.00000E+00          0.00000E+00
      -7119     1.57371E+01    -1.24250E+01     0.00000E+00     0.00000E+00          0.00000E+00
      -7118     1.57326E+01    -1.24233E+01     0.00000E+00     0.00000E+00          0.00000E+00
      -7117     1.57282E+01    -1.24215E+01     0.00000E+00     0.00000E+00          0.00000E+00
      -7116     1.57238E+01    -1.24198E+01     0.00000E+00     0.00000E+00          0.00000E+00
      -7115     1.57194E+01    -1.24180E+01     0.00000E+00     0.00000E+00          0.00000E+00
      -7114     1.57150E+01    -1.24163E+01     0.00000E+00     0.00000E+00          0.00000E+00
      -7113     1.57106E+01    -1.24145E+01     0.00000E+00     0.00000E+00          0.00000E+00
      -7112     1.57061E+01    -1.24128E+01     0.00000E+00     0.00000E+00          0.00000E+00
      -7111     1.57017E+01    -1.24110E+01     0.00000E+00     0.00000E+00          0.00000E+00
      -7110     1.56973E+01    -1.24093E+01     0.00000E+00     0.00000E+00          0.00000E+00
      -7109     1.56929E+01    -1.24075E+01     0.00000E+00     0.00000E+00          0.00000E+00
      -7108     1.56885E+01    -1.24058E+01     0.00000E+00     0.00000E+00          0.00000E+00
      -7107     1.56841E+01    -1.24041E+01     0.00000E+00     0.00000E+00          0.00000E+00
      -7106     1.56796E+01    -1.24023E+01     0.00000E+00     0.00000E+00          0.00000E+00
      -7105     1.56752E+01    -1.24006E+01     0.00000E+00     0.00000E+00          0.00000E+00
      -7104     1.56708E+01    -1.23988E+01     0.00000E+00     0.00000E+00          0.00000E+00
      -7103     1.56664E+01    -1.23971E+01     0.00000E+00     0.00000E+00          0.00000E+00
      -7102     1.56620E+01    -1.23953E+01     0.00000E+00     0.00000E+00          0.00000E+00
      -7101     1.56576E+01    -1.23936E+01     0.00000E+00     0.00000E+00          0.00000E+00
      -7100     1.56532E+01    -1.23918E+01     0.00000E+00     0.00000E+00          0.00000E+00
      -7099     1.56488E+01    -1.23901E+01     0.00000E+00     0.00000E+00          0.00000E+00
      -7098     1.56444E+01    -1.23883E+01     0.00000E+00     0.00000E+00          0.00000E+00
      -7097     1.56400E+01    -1.23866E+01     0.00000E+00     0.00000E+00          0.00000E+00
      -7096     1.56355E+01    -1.23849E+01     0.00000E+00     0.00000E+00          0.00000E+00
      -7095     1.56311E+01    -1.23831E+01     0.00000E+00     0.00000E+00          0.00000E+00
      -7094     1.56267E+01    -1.23814E+01     0.00000E+00     0.00000E+00          0.00000E+00
      -7093     1.56223E+01    -1.23796E+01     0.00000E+00     0.00000E+00          0.00000E+00
      -7092     1.56179E+01    -1.23779E+01     0.00000E+00     0.00000E+00          0.00000E+00
      -7091     1.56135E+01    -1.23761E+01     0.00000E+00     0.00000E+00          0.00000E+00
      -7090     1.56091E+01    -1.23744E+01     0.00000E+00     0.00000E+00          0.00000E+00
      -7089     1.56047E+01    -1.23726E+01     0.00000E+00     0.00000E+00          0.00000E+00
      -7088     1.56003E+01    -1.23709E+01     0.00000E+00     0.00000E+00          0.00000E+00
      -7087     1.55959E+01    -1.23691E+01     0.00000E+00     0.00000E+00          0.00000E+00
      -7086     1.55915E+01    -1.23674E+01     0.00000E+00     0.00000E+00          0.00000E+00
      -7085     1.55871E+01    -1.23657E+01     0.00000E+00     0.00000E+00          0.00000E+00
      -7084     1.55827E+01    -1.23639E+01     0.00000E+00     0.00000E+00          0.00000E+00
      -7083     1.55783E+01    -1.23622E+01     0.00000E+00     0.00000E+00          0.00000E+00
      -7082     1.55739E+01    -1.23604E+01     0.00000E+00     0.00000E+00          0.00000E+00
      -7081     1.55695E+01    -1.23587E+01     0.00000E+00     0.00000E+00          0.00000E+00
      -7080     1.55651E+01    -1.23569E+01     0.00000E+00     0.00000E+00          0.00000E+00
      -7079     1.55607E+01    -1.23552E+01     0.00000E+00     0.00000E+00          0.00000E+00
      -7078     1.55563E+01    -1.23534E+01     0.00000E+00     0.00000E+00          0.00000E+00
      -7077     1.55519E+01    -1.23517E+01     0.00000E+00     0.00000E+00          0.00000E+00
      -7076     1.55475E+01    -1.23500E+01     0.00000E+00     0.00000E+00          0.00000E+00
      -7075     1.55431E+01    -1.23482E+01     0.00000E+00     0.00000E+00          0.00000E+00
      -7074     1.55387E+01    -1.23465E+01     0.00000E+00     0.00000E+00          0.00000E+00
      -7073     1.55343E+01    -1.23447E+01     0.00000E+00     0.00000E+00          0.00000E+00
      -7072     1.55300E+01    -1.23430E+01     0.00000E+00     0.00000E+00          0.00000E+00
      -7071     1.55256E+01    -1.23412E+01     0.00000E+00     0.00000E+00          0.00000E+00
      -7070     1.55212E+01    -1.23395E+01     0.00000E+00     0.00000E+00          0.00000E+00
      -7069     1.55168E+01    -1.23377E+01     0.00000E+00     0.00000E+00          0.00000E+00
      -7068     1.55124E+01    -1.23360E+01     0.00000E+00     0.00000E+00          0.00000E+00
      -7067     1.55080E+01    -1.23342E+01     0.00000E+00     0.00000E+00          0.00000E+00
      -7066     1.55036E+01    -1.23325E+01     0.00000E+00     0.00000E+00          0.00000E+00
      -7065     1.54992E+01    -1.23308E+01     0.00000E+00     0.00000E+00          0.00000E+00
      -7064     1.54948E+01    -1.23290E+01     0.00000E+00     0.00000E+00          0.00000E+00
      -7063     1.54905E+01    -1.23273E+01     0.00000E+00     0.00000E+00          0.00000E+00
      -7062     1.54861E+01    -1.23255E+01     0.00000E+00     0.00000E+00          0.00000E+00
      -7061     1.54817E+01    -1.23238E+01     0.00000E+00     0.00000E+00          0.00000E+00
      -7060     1.54773E+01    -1.23220E+01     0.00000E+00     0.00000E+00          0.00000E+00
      -7059     1.54729E+01    -1.23203E+01     0.00000E+00     0.00000E+00          0.00000E+00
      -7058     1.54685E+01    -1.23185E+01     0.00000E+00     0.00000E+00          0.00000E+00
      -7057     1.54641E+01    -1.23168E+01     0.00000E+00     0.00000E+00          0.00000E+00
      -7056     1.54598E+01    -1.23150E+01     0.00000E+00     0.00000E+00          0.00000E+00
      -7055     1.54554E+01    -1.23133E+01     0.00000E+00     0.00000E+00          0.00000E+00
      -7054     1.54510E+01    -1.23116E+01     0.00000E+00     0.00000E+00          0.00000E+00
      -7053     1.54466E+01    -1.23098E+01     0.00000E+00     0.00000E+00          0.00000E+00
      -7052     1.54422E+01    -1.23081E+01     0.00000E+00     0.00000E+00          0.00000E+00
      -7051     1.54379E+01    -1.23063E+01     0.00000E+00     0.00000E+00          0.00000E+00
      -7050     1.54335E+01    -1.23046E+01     0.00000E+00     0.00000E+00          0.00000E+00
      -7049     1.54291E+01    -1.23028E+01     0.00000E+00     0.00000E+00          0.00000E+00
      -7048     1.54247E+01    -1.23011E+01     0.00000E+00     0.00000E+00          0.00000E+00
      -7047     1.54204E+01    -1.22993E+01     0.00000E+00     0.00000E+00          0.00000E+00
      -7046     1.54160E+01    -1.22976E+01     0.00000E+00     0.00000E+00          0.00000E+00
      -7045     1.54116E+01    -1.22958E+01     0.00000E+00     0.00000E+00          0.00000E+00
      -7044     1.54072E+01    -1.22941E+01     0.00000E+00     0.00000E+00          0.00000E+00
      -7043     1.54029E+01    -1.22924E+01     0.00000E+00     0.00000E+00          0.00000E+00
      -7042     1.53985E+01    -1.22906E+01     0.00000E+00     0.00000E+00          0.00000E+00
      -7041     1.53941E+01    -1.22889E+01     0.00000E+00     0.00000E+00          0.00000E+00
      -7040     1.53897E+01    -1.22871E+01     0.00000E+00     0.00000E+00          0.00000E+00
      -7039     1.53854E+01    -1.22854E+01     0.00000E+00     0.00000E+00          0.00000E+00
      -7038     1.53810E+01    -1.22836E+01     0.00000E+00     0.00000E+00          0.00000E+00
      -7037     1.53766E+01    -1.22819E+01     0.00000E+00     0.00000E+00          0.00000E+00
      -7036     1.53722E+01    -1.22801E+01     0.00000E+00     0.00000E+00          0.00000E+00
      -7035     1.53679E+01    -1.22784E+01     0.00000E+00     0.00000E+00          0.00000E+00
      -7034     1.53635E+01    -1.22766E+01     0.00000E+00     0.00000E+00          0.00000E+00
      -7033     1.53591E+01    -1.22749E+01     0.00000E+00     0.00000E+00          0.00000E+00
      -7032     1.53548E+01    -1.22732E+01     0.00000E+00     0.00000E+00          0.00000E+00
      -7031     1.53504E+01    -1.22714E+01     0.00000E+00     0.00000E+00          0.00000E+00
      -7030     1.53460E+01    -1.22697E+01     0.00000E+00     0.00000E+00          0.00000E+00
      -7029     1.53417E+01    -1.22679E+01     0.00000E+00     0.00000E+00          0.00000E+00
      -7028     1.53373E+01    -1.22662E+01     0.00000E+00     0.00000E+00          0.00000E+00
      -7027     1.53329E+01    -1.22644E+01     0.00000E+00     0.00000E+00          0.00000E+00
      -7026     1.53286E+01    -1.22627E+01     0.00000E+00     0.00000E+00          0.00000E+00
      -7025     1.53242E+01    -1.22609E+01     0.00000E+00     0.00000E+00          0.00000E+00
      -7024     1.53199E+01    -1.22592E+01     0.00000E+00     0.00000E+00          0.00000E+00
      -7023     1.53155E+01    -1.22574E+01     0.00000E+00     0.00000E+00          0.00000E+00
      -7022     1.53111E+01    -1.22557E+01     0.00000E+00     0.00000E+00          0.00000E+00
      -7021     1.53068E+01    -1.22540E+01     0.00000E+00     0.00000E+00          0.00000E+00
      -7020     1.53024E+01    -1.22522E+01     0.00000E+00     0.00000E+00          0.00000E+00
      -7019     1.52981E+01    -1.22505E+01     0.00000E+00     0.00000E+00          0.00000E+00
      -7018     1.52937E+01    -1.22487E+01     0.00000E+00     0.00000E+00          0.00000E+00
      -7017     1.52893E+01    -1.22470E+01     0.00000E+00     0.00000E+00          0.00000E+00
      -7016     1.52850E+01    -1.22452E+01     0.00000E+00     0.00000E+00          0.00000E+00
      -7015     1.52806E+01    -1.22435E+01     0.00000E+00     0.00000E+00          0.00000E+00
      -7014     1.52763E+01    -1.22417E+01     0.00000E+00     0.00000E+00          0.00000E+00
      -7013     1.52719E+01    -1.22400E+01     0.00000E+00     0.00000E+00          0.00000E+00
      -7012     1.52676E+01    -1.22382E+01     0.00000E+00     0.00000E+00          0.00000E+00
      -7011     1.52632E+01    -1.22365E+01     0.00000E+00     0.00000E+00          0.00000E+00
      -7010     1.52589E+01    -1.22348E+01     0.00000E+00     0.00000E+00          0.00000E+00
      -7009     1.52545E+01    -1.22330E+01     0.00000E+00     0.00000E+00          0.00000E+00
      -7008     1.52501E+01    -1.22313E+01     0.00000E+00     0.00000E+00          0.00000E+00
      -7007     1.52458E+01    -1.22295E+01     0.00000E+00     0.00000E+00          0.00000E+00
      -7006     1.52414E+01    -1.22278E+01     0.00000E+00     0.00000E+00          0.00000E+00
      -7005     1.52371E+01    -1.22260E+01     0.00000E+00     0.00000E+00          0.00000E+00
      -7004     1.52327E+01    -1.22243E+01     0.00000E+00     0.00000E+00          0.00000E+00
      -7003     1.52284E+01    -1.22225E+01     0.00000E+00     0.00000E+00          0.00000E+00
      -7002     1.52240E+01    -1.22208E+01     0.00000E+00     0.00000E+00          0.00000E+00
      -7001     1.52197E+01    -1.22191E+01     0.00000E+00     0.00000E+00          0.00000E+00
      -7000     1.52153E+01    -1.22173E+01     0.00000E+00     0.00000E+00          0.00000E+00
      -6999     1.52110E+01    -1.22156E+01     0.00000E+00     0.00000E+00          0.00000E+00
      -6998     1.52067E+01    -1.22138E+01     0.00000E+00     0.00000E+00          0.00000E+00
      -6997     1.52023E+01    -1.22121E+01     0.00000E+00     0.00000E+00          0.00000E+00
      -6996     1.51980E+01    -1.22103E+01     0.00000E+00     0.00000E+00          0.00000E+00
      -6995     1.51936E+01    -1.22086E+01     0.00000E+00     0.00000E+00          0.00000E+00
      -6994     1.51893E+01    -1.22068E+01     0.00000E+00     0.00000E+00          0.00000E+00
      -6993     1.51849E+01    -1.22051E+01     0.00000E+00     0.00000E+00          0.00000E+00
      -6992     1.51806E+01    -1.22033E+01     0.00000E+00     0.00000E+00          0.00000E+00
      -6991     1.51762E+01    -1.22016E+01     0.00000E+00     0.00000E+00          0.00000E+00
      -6990     1.51719E+01    -1.21999E+01     0.00000E+00     0.00000E+00          0.00000E+00
      -6989     1.51676E+01    -1.21981E+01     0.00000E+00     0.00000E+00          0.00000E+00
      -6988     1.51632E+01    -1.21964E+01     0.00000E+00     0.00000E+00          0.00000E+00
      -6987     1.51589E+01    -1.21946E+01     0.00000E+00     0.00000E+00          0.00000E+00
      -6986     1.51545E+01    -1.21929E+01     0.00000E+00     0.00000E+00          0.00000E+00
      -6985     1.51502E+01    -1.21911E+01     0.00000E+00     0.00000E+00          0.00000E+00
      -6984     1.51459E+01    -1.21894E+01     0.00000E+00     0.00000E+00          0.00000E+00
      -6983     1.51415E+01    -1.21876E+01     0.00000E+00     0.00000E+00          0.00000E+00
      -6982     1.51372E+01    -1.21859E+01     0.00000E+00     0.00000E+00          0.00000E+00
      -6981     1.51329E+01    -1.21841E+01     0.00000E+00     0.00000E+00          0.00000E+00
      -6980     1.51285E+01    -1.21824E+01     0.00000E+00     0.00000E+00          0.00000E+00
      -6979     1.51242E+01    -1.21807E+01     0.00000E+00     0.00000E+00          0.00000E+00
      -6978     1.51199E+01    -1.21789E+01     0.00000E+00     0.00000E+00          0.00000E+00
      -6977     1.51155E+01    -1.21772E+01     0.00000E+00     0.00000E+00          0.00000E+00
      -6976     1.51112E+01    -1.21754E+01     0.00000E+00     0.00000E+00          0.00000E+00
      -6975     1.51069E+01    -1.21737E+01     0.00000E+00     0.00000E+00          0.00000E+00
      -6974     1.51025E+01    -1.21719E+01     0.00000E+00     0.00000E+00          0.00000E+00
      -6973     1.50982E+01    -1.21702E+01     0.00000E+00     0.00000E+00          0.00000E+00
      -6972     1.50939E+01    -1.21684E+01     0.00000E+00     0.00000E+00          0.00000E+00
      -6971     1.50895E+01    -1.21667E+01     0.00000E+00     0.00000E+00          0.00000E+00
      -6970     1.50852E+01    -1.21649E+01     0.00000E+00     0.00000E+00          0.00000E+00
      -6969     1.50809E+01    -1.21632E+01     0.00000E+00     0.00000E+00          0.00000E+00
      -6968     1.50766E+01    -1.21615E+01     0.00000E+00     0.00000E+00          0.00000E+00
      -6967     1.50722E+01    -1.21597E+01     0.00000E+00     0.00000E+00          0.00000E+00
      -6966     1.50679E+01    -1.21580E+01     0.00000E+00     0.00000E+00          0.00000E+00
      -6965     1.50636E+01    -1.21562E+01     0.00000E+00     0.00000E+00          0.00000E+00
      -6964     1.50592E+01    -1.21545E+01     0.00000E+00     0.00000E+00          0.00000E+00
      -6963     1.50549E+01    -1.21527E+01     0.00000E+00     0.00000E+00          0.00000E+00
      -6962     1.50506E+01    -1.21510E+01     0.00000E+00     0.00000E+00          0.00000E+00
      -6961     1.50463E+01    -1.21492E+01     0.00000E+00     0.00000E+00          0.00000E+00
      -6960     1.50420E+01    -1.21475E+01     0.00000E+00     0.00000E+00          0.00000E+00
      -6959     1.50376E+01    -1.21457E+01     0.00000E+00     0.00000E+00          0.00000E+00
      -6958     1.50333E+01    -1.21440E+01     0.00000E+00     0.00000E+00          0.00000E+00
      -6957     1.50290E+01    -1.21423E+01     0.00000E+00     0.00000E+00          0.00000E+00
      -6956     1.50247E+01    -1.21405E+01     0.00000E+00     0.00000E+00          0.00000E+00
      -6955     1.50203E+01    -1.21388E+01     0.00000E+00     0.00000E+00          0.00000E+00
      -6954     1.50160E+01    -1.21370E+01     0.00000E+00     0.00000E+00          0.00000E+00
      -6953     1.50117E+01    -1.21353E+01     0.00000E+00     0.00000E+00          0.00000E+00
      -6952     1.50074E+01    -1.21335E+01     0.00000E+00     0.00000E+00          0.00000E+00
      -6951     1.50031E+01    -1.21318E+01     0.00000E+00     0.00000E+00          0.00000E+00
      -6950     1.49988E+01    -1.21300E+01     0.00000E+00     0.00000E+00          0.00000E+00
      -6949     1.49944E+01    -1.21283E+01     0.00000E+00     0.00000E+00          0.00000E+00
      -6948     1.49901E+01    -1.21265E+01     0.00000E+00     0.00000E+00          0.00000E+00
      -6947     1.49858E+01    -1.21248E+01     0.00000E+00     0.00000E+00          0.00000E+00
      -6946     1.49815E+01    -1.21231E+01     0.00000E+00     0.00000E+00          0.00000E+00
      -6945     1.49772E+01    -1.21213E+01     0.00000E+00     0.00000E+00          0.00000E+00
      -6944     1.49729E+01    -1.21196E+01     0.00000E+00     0.00000E+00          0.00000E+00
      -6943     1.49686E+01    -1.21178E+01     0.00000E+00     0.00000E+00          0.00000E+00
      -6942     1.49643E+01    -1.21161E+01     0.00000E+00     0.00000E+00          0.00000E+00
      -6941     1.49599E+01    -1.21143E+01     0.00000E+00     0.00000E+00          0.00000E+00
      -6940     1.49556E+01    -1.21126E+01     0.00000E+00     0.00000E+00          0.00000E+00
      -6939     1.49513E+01    -1.21108E+01     0.00000E+00     0.00000E+00          0.00000E+00
      -6938     1.49470E+01    -1.21091E+01     0.00000E+00     0.00000E+00          0.00000E+00
      -6937     1.49427E+01    -1.21073E+01     0.00000E+00     0.00000E+00          0.00000E+00
      -6936     1.49384E+01    -1.21056E+01     0.00000E+00     0.00000E+00          0.00000E+00
      -6935     1.49341E+01    -1.21039E+01     0.00000E+00     0.00000E+00          0.00000E+00
      -6934     1.49298E+01    -1.21021E+01     0.00000E+00     0.00000E+00          0.00000E+00
      -6933     1.49255E+01    -1.21004E+01     0.00000E+00     0.00000E+00          0.00000E+00
      -6932     1.49212E+01    -1.20986E+01     0.00000E+00     0.00000E+00          0.00000E+00
      -6931     1.49169E+01    -1.20969E+01     0.00000E+00     0.00000E+00          0.00000E+00
      -6930     1.49126E+01    -1.20951E+01     0.00000E+00     0.00000E+00          0.00000E+00
      -6929     1.49083E+01    -1.20934E+01     0.00000E+00     0.00000E+00          0.00000E+00
      -6928     1.49040E+01    -1.20916E+01     0.00000E+00     0.00000E+00          0.00000E+00
      -6927     1.48997E+01    -1.20899E+01     0.00000E+00     0.00000E+00          0.00000E+00
      -6926     1.48954E+01    -1.20882E+01     0.00000E+00     0.00000E+00          0.00000E+00
      -6925     1.48910E+01    -1.20864E+01     0.00000E+00     0.00000E+00          0.00000E+00
      -6924     1.48867E+01    -1.20847E+01     0.00000E+00     0.00000E+00          0.00000E+00
      -6923     1.48824E+01    -1.20829E+01     0.00000E+00     0.00000E+00          0.00000E+00
      -6922     1.48782E+01    -1.20812E+01     0.00000E+00     0.00000E+00          0.00000E+00
      -6921     1.48739E+01    -1.20794E+01     0.00000E+00     0.00000E+00          0.00000E+00
      -6920     1.48696E+01    -1.20777E+01     0.00000E+00     0.00000E+00          0.00000E+00
      -6919     1.48653E+01    -1.20759E+01     0.00000E+00     0.00000E+00          0.00000E+00
      -6918     1.48610E+01    -1.20742E+01     0.00000E+00     0.00000E+00          0.00000E+00
      -6917     1.48567E+01    -1.20724E+01     0.00000E+00     0.00000E+00          0.00000E+00
      -6916     1.48524E+01    -1.20707E+01     0.00000E+00     0.00000E+00          0.00000E+00
      -6915     1.48481E+01    -1.20690E+01     0.00000E+00     0.00000E+00          0.00000E+00
      -6914     1.48438E+01    -1.20672E+01     0.00000E+00     0.00000E+00          0.00000E+00
      -6913     1.48395E+01    -1.20655E+01     0.00000E+00     0.00000E+00          0.00000E+00
      -6912     1.48352E+01    -1.20637E+01     0.00000E+00     0.00000E+00          0.00000E+00
      -6911     1.48309E+01    -1.20620E+01     0.00000E+00     0.00000E+00          0.00000E+00
      -6910     1.48266E+01    -1.20602E+01     0.00000E+00     0.00000E+00          0.00000E+00
      -6909     1.48223E+01    -1.20585E+01     0.00000E+00     0.00000E+00          0.00000E+00
      -6908     1.48180E+01    -1.20567E+01     0.00000E+00     0.00000E+00          0.00000E+00
      -6907     1.48137E+01    -1.20550E+01     0.00000E+00     0.00000E+00          0.00000E+00
      -6906     1.48094E+01    -1.20532E+01     0.00000E+00     0.00000E+00          0.00000E+00
      -6905     1.48052E+01    -1.20515E+01     0.00000E+00     0.00000E+00          0.00000E+00
      -6904     1.48009E+01    -1.20498E+01     0.00000E+00     0.00000E+00          0.00000E+00
      -6903     1.47966E+01    -1.20480E+01     0.00000E+00     0.00000E+00          0.00000E+00
      -6902     1.47923E+01    -1.20463E+01     0.00000E+00     0.00000E+00          0.00000E+00
      -6901     1.47880E+01    -1.20445E+01     0.00000E+00     0.00000E+00          0.00000E+00
      -6900     1.47837E+01    -1.20428E+01     0.00000E+00     0.00000E+00          0.00000E+00
      -6899     1.47794E+01    -1.20410E+01     0.00000E+00     0.00000E+00          0.00000E+00
      -6898     1.47752E+01    -1.20393E+01     0.00000E+00     0.00000E+00          0.00000E+00
      -6897     1.47709E+01    -1.20375E+01     0.00000E+00     0.00000E+00          0.00000E+00
      -6896     1.47666E+01    -1.20358E+01     0.00000E+00     0.00000E+00          0.00000E+00
      -6895     1.47623E+01    -1.20340E+01     0.00000E+00     0.00000E+00          0.00000E+00
      -6894     1.47580E+01    -1.20323E+01     0.00000E+00     0.00000E+00          0.00000E+00
      -6893     1.47537E+01    -1.20306E+01     0.00000E+00     0.00000E+00          0.00000E+00
      -6892     1.47495E+01    -1.20288E+01     0.00000E+00     0.00000E+00          0.00000E+00
      -6891     1.47452E+01    -1.20271E+01     0.00000E+00     0.00000E+00          0.00000E+00
      -6890     1.47409E+01    -1.20253E+01     0.00000E+00     0.00000E+00          0.00000E+00
      -6889     1.47366E+01    -1.20236E+01     0.00000E+00     0.00000E+00          0.00000E+00
      -6888     1.47324E+01    -1.20218E+01     0.00000E+00     0.00000E+00          0.00000E+00
      -6887     1.47281E+01    -1.20201E+01     0.00000E+00     0.00000E+00          0.00000E+00
      -6886     1.47238E+01    -1.20183E+01     0.00000E+00     0.00000E+00          0.00000E+00
      -6885     1.47195E+01    -1.20166E+01     0.00000E+00     0.00000E+00          0.00000E+00
      -6884     1.47152E+01    -1.20148E+01     0.00000E+00     0.00000E+00          0.00000E+00
      -6883     1.47110E+01    -1.20131E+01     0.00000E+00     0.00000E+00          0.00000E+00
      -6882     1.47067E+01    -1.20114E+01     0.00000E+00     0.00000E+00          0.00000E+00
      -6881     1.47024E+01    -1.20096E+01     0.00000E+00     0.00000E+00          0.00000E+00
      -6880     1.46981E+01    -1.20079E+01     0.00000E+00     0.00000E+00          0.00000E+00
      -6879     1.46939E+01    -1.20061E+01     0.00000E+00     0.00000E+00          0.00000E+00
      -6878     1.46896E+01    -1.20044E+01     0.00000E+00     0.00000E+00          0.00000E+00
      -6877     1.46853E+01    -1.20026E+01     0.00000E+00     0.00000E+00          0.00000E+00
      -6876     1.46811E+01    -1.20009E+01     0.00000E+00     0.00000E+00          0.00000E+00
      -6875     1.46768E+01    -1.19991E+01     0.00000E+00     0.00000E+00          0.00000E+00
      -6874     1.46725E+01    -1.19974E+01     0.00000E+00     0.00000E+00          0.00000E+00
      -6873     1.46683E+01    -1.19956E+01     0.00000E+00     0.00000E+00          0.00000E+00
      -6872     1.46640E+01    -1.19939E+01     0.00000E+00     0.00000E+00          0.00000E+00
      -6871     1.46597E+01    -1.19922E+01     0.00000E+00     0.00000E+00          0.00000E+00
      -6870     1.46555E+01    -1.19904E+01     0.00000E+00     0.00000E+00          0.00000E+00
      -6869     1.46512E+01    -1.19887E+01     0.00000E+00     0.00000E+00          0.00000E+00
      -6868     1.46469E+01    -1.19869E+01     0.00000E+00     0.00000E+00          0.00000E+00
      -6867     1.46427E+01    -1.19852E+01     0.00000E+00     0.00000E+00          0.00000E+00
      -6866     1.46384E+01    -1.19834E+01     0.00000E+00     0.00000E+00          0.00000E+00
      -6865     1.46341E+01    -1.19817E+01     0.00000E+00     0.00000E+00          0.00000E+00
      -6864     1.46299E+01    -1.19799E+01     0.00000E+00     0.00000E+00          0.00000E+00
      -6863     1.46256E+01    -1.19782E+01     0.00000E+00     0.00000E+00          0.00000E+00
      -6862     1.46213E+01    -1.19764E+01     0.00000E+00     0.00000E+00          0.00000E+00
      -6861     1.46171E+01    -1.19747E+01     0.00000E+00     0.00000E+00          0.00000E+00
      -6860     1.46128E+01    -1.19730E+01     0.00000E+00     0.00000E+00          0.00000E+00
      -6859     1.46086E+01    -1.19712E+01     0.00000E+00     0.00000E+00          0.00000E+00
      -6858     1.46043E+01    -1.19695E+01     0.00000E+00     0.00000E+00          0.00000E+00
      -6857     1.46000E+01    -1.19677E+01     0.00000E+00     0.00000E+00          0.00000E+00
      -6856     1.45958E+01    -1.19660E+01     0.00000E+00     0.00000E+00          0.00000E+00
      -6855     1.45915E+01    -1.19642E+01     0.00000E+00     0.00000E+00          0.00000E+00
      -6854     1.45873E+01    -1.19625E+01     0.00000E+00     0.00000E+00          0.00000E+00
      -6853     1.45830E+01    -1.19607E+01     0.00000E+00     0.00000E+00          0.00000E+00
      -6852     1.45788E+01    -1.19590E+01     0.00000E+00     0.00000E+00          0.00000E+00
      -6851     1.45745E+01    -1.19573E+01     0.00000E+00     0.00000E+00          0.00000E+00
      -6850     1.45702E+01    -1.19555E+01     0.00000E+00     0.00000E+00          0.00000E+00
      -6849     1.45660E+01    -1.19538E+01     0.00000E+00     0.00000E+00          0.00000E+00
      -6848     1.45617E+01    -1.19520E+01     0.00000E+00     0.00000E+00          0.00000E+00
      -6847     1.45575E+01    -1.19503E+01     0.00000E+00     0.00000E+00          0.00000E+00
      -6846     1.45532E+01    -1.19485E+01     0.00000E+00     0.00000E+00          0.00000E+00
      -6845     1.45490E+01    -1.19468E+01     0.00000E+00     0.00000E+00          0.00000E+00
      -6844     1.45447E+01    -1.19450E+01     0.00000E+00     0.00000E+00          0.00000E+00
      -6843     1.45405E+01    -1.19433E+01     0.00000E+00     0.00000E+00          0.00000E+00
      -6842     1.45362E+01    -1.19415E+01     0.00000E+00     0.00000E+00          0.00000E+00
      -6841     1.45320E+01    -1.19398E+01     0.00000E+00     0.00000E+00          0.00000E+00
      -6840     1.45277E+01    -1.19381E+01     0.00000E+00     0.00000E+00          0.00000E+00
      -6839     1.45235E+01    -1.19363E+01     0.00000E+00     0.00000E+00          0.00000E+00
      -6838     1.45192E+01    -1.19346E+01     0.00000E+00     0.00000E+00          0.00000E+00
      -6837     1.45150E+01    -1.19328E+01     0.00000E+00     0.00000E+00          0.00000E+00
      -6836     1.45107E+01    -1.19311E+01     0.00000E+00     0.00000E+00          0.00000E+00
      -6835     1.45065E+01    -1.19293E+01     0.00000E+00     0.00000E+00          0.00000E+00
      -6834     1.45023E+01    -1.19276E+01     0.00000E+00     0.00000E+00          0.00000E+00
      -6833     1.44980E+01    -1.19258E+01     0.00000E+00     0.00000E+00          0.00000E+00
      -6832     1.44938E+01    -1.19241E+01     0.00000E+00     0.00000E+00          0.00000E+00
      -6831     1.44895E+01    -1.19223E+01     0.00000E+00     0.00000E+00          0.00000E+00
      -6830     1.44853E+01    -1.19206E+01     0.00000E+00     0.00000E+00          0.00000E+00
      -6829     1.44810E+01    -1.19189E+01     0.00000E+00     0.00000E+00          0.00000E+00
      -6828     1.44768E+01    -1.19171E+01     0.00000E+00     0.00000E+00          0.00000E+00
      -6827     1.44726E+01    -1.19154E+01     0.00000E+00     0.00000E+00          0.00000E+00
      -6826     1.44683E+01    -1.19136E+01     0.00000E+00     0.00000E+00          0.00000E+00
      -6825     1.44641E+01    -1.19119E+01     0.00000E+00     0.00000E+00          0.00000E+00
      -6824     1.44598E+01    -1.19101E+01     0.00000E+00     0.00000E+00          0.00000E+00
      -6823     1.44556E+01    -1.19084E+01     0.00000E+00     0.00000E+00          0.00000E+00
      -6822     1.44514E+01    -1.19066E+01     0.00000E+00     0.00000E+00          0.00000E+00
      -6821     1.44471E+01    -1.19049E+01     0.00000E+00     0.00000E+00          0.00000E+00
      -6820     1.44429E+01    -1.19031E+01     0.00000E+00     0.00000E+00          0.00000E+00
      -6819     1.44387E+01    -1.19014E+01     0.00000E+00     0.00000E+00          0.00000E+00
      -6818     1.44344E+01    -1.18997E+01     0.00000E+00     0.00000E+00          0.00000E+00
      -6817     1.44302E+01    -1.18979E+01     0.00000E+00     0.00000E+00          0.00000E+00
      -6816     1.44260E+01    -1.18962E+01     0.00000E+00     0.00000E+00          0.00000E+00
      -6815     1.44217E+01    -1.18944E+01     0.00000E+00     0.00000E+00          0.00000E+00
      -6814     1.44175E+01    -1.18927E+01     0.00000E+00     0.00000E+00          0.00000E+00
      -6813     1.44133E+01    -1.18909E+01     0.00000E+00     0.00000E+00          0.00000E+00
      -6812     1.44090E+01    -1.18892E+01     0.00000E+00     0.00000E+00          0.00000E+00
      -6811     1.44048E+01    -1.18874E+01     0.00000E+00     0.00000E+00          0.00000E+00
      -6810     1.44006E+01    -1.18857E+01     0.00000E+00     0.00000E+00          0.00000E+00
      -6809     1.43964E+01    -1.18839E+01     0.00000E+00     0.00000E+00          0.00000E+00
      -6808     1.43921E+01    -1.18822E+01     0.00000E+00     0.00000E+00          0.00000E+00
      -6807     1.43879E+01    -1.18805E+01     0.00000E+00     0.00000E+00          0.00000E+00
      -6806     1.43837E+01    -1.18787E+01     0.00000E+00     0.00000E+00          0.00000E+00
      -6805     1.43794E+01    -1.18770E+01     0.00000E+00     0.00000E+00          0.00000E+00
      -6804     1.43752E+01    -1.18752E+01     0.00000E+00     0.00000E+00          0.00000E+00
      -6803     1.43710E+01    -1.18735E+01     0.00000E+00     0.00000E+00          0.00000E+00
      -6802     1.43668E+01    -1.18717E+01     0.00000E+00     0.00000E+00          0.00000E+00
      -6801     1.43625E+01    -1.18700E+01     0.00000E+00     0.00000E+00          0.00000E+00
      -6800     1.43583E+01    -1.18682E+01     0.00000E+00     0.00000E+00          0.00000E+00
      -6799     1.43541E+01    -1.18665E+01     0.00000E+00     0.00000E+00          0.00000E+00
      -6798     1.43499E+01    -1.18647E+01     0.00000E+00     0.00000E+00          0.00000E+00
      -6797     1.43457E+01    -1.18630E+01     0.00000E+00     0.00000E+00          0.00000E+00
      -6796     1.43414E+01    -1.18613E+01     0.00000E+00     0.00000E+00          0.00000E+00
      -6795     1.43372E+01    -1.18595E+01     0.00000E+00     0.00000E+00          0.00000E+00
      -6794     1.43330E+01    -1.18578E+01     0.00000E+00     0.00000E+00          0.00000E+00
      -6793     1.43288E+01    -1.18560E+01     0.00000E+00     0.00000E+00          0.00000E+00
      -6792     1.43246E+01    -1.18543E+01     0.00000E+00     0.00000E+00          0.00000E+00
      -6791     1.43203E+01    -1.18525E+01     0.00000E+00     0.00000E+00          0.00000E+00
      -6790     1.43161E+01    -1.18508E+01     0.00000E+00     0.00000E+00          0.00000E+00
      -6789     1.43119E+01    -1.18490E+01     0.00000E+00     0.00000E+00          0.00000E+00
      -6788     1.43077E+01    -1.18473E+01     0.00000E+00     0.00000E+00          0.00000E+00
      -6787     1.43035E+01    -1.18456E+01     0.00000E+00     0.00000E+00          0.00000E+00
      -6786     1.42993E+01    -1.18438E+01     0.00000E+00     0.00000E+00          0.00000E+00
      -6785     1.42950E+01    -1.18421E+01     0.00000E+00     0.00000E+00          0.00000E+00
      -6784     1.42908E+01    -1.18403E+01     0.00000E+00     0.00000E+00          0.00000E+00
      -6783     1.42866E+01    -1.18386E+01     0.00000E+00     0.00000E+00          0.00000E+00
      -6782     1.42824E+01    -1.18368E+01     0.00000E+00     0.00000E+00          0.00000E+00
      -6781     1.42782E+01    -1.18351E+01     0.00000E+00     0.00000E+00          0.00000E+00
      -6780     1.42740E+01    -1.18333E+01     0.00000E+00     0.00000E+00          0.00000E+00
      -6779     1.42698E+01    -1.18316E+01     0.00000E+00     0.00000E+00          0.00000E+00
      -6778     1.42656E+01    -1.18298E+01     0.00000E+00     0.00000E+00          0.00000E+00
      -6777     1.42614E+01    -1.18281E+01     0.00000E+00     0.00000E+00          0.00000E+00
      -6776     1.42571E+01    -1.18264E+01     0.00000E+00     0.00000E+00          0.00000E+00
      -6775     1.42529E+01    -1.18246E+01     0.00000E+00     0.00000E+00          0.00000E+00
      -6774     1.42487E+01    -1.18229E+01     0.00000E+00     0.00000E+00          0.00000E+00
      -6773     1.42445E+01    -1.18211E+01     0.00000E+00     0.00000E+00          0.00000E+00
      -6772     1.42403E+01    -1.18194E+01     0.00000E+00     0.00000E+00          0.00000E+00
      -6771     1.42361E+01    -1.18176E+01     0.00000E+00     0.00000E+00          0.00000E+00
      -6770     1.42319E+01    -1.18159E+01     0.00000E+00     0.00000E+00          0.00000E+00
      -6769     1.42277E+01    -1.18141E+01     0.00000E+00     0.00000E+00          0.00000E+00
      -6768     1.42235E+01    -1.18124E+01     0.00000E+00     0.00000E+00          0.00000E+00
      -6767     1.42193E+01    -1.18106E+01     0.00000E+00     0.00000E+00          0.00000E+00
      -6766     1.42151E+01    -1.18089E+01     0.00000E+00     0.00000E+00          0.00000E+00
      -6765     1.42109E+01    -1.18072E+01     0.00000E+00     0.00000E+00          0.00000E+00
      -6764     1.42067E+01    -1.18054E+01     0.00000E+00     0.00000E+00          0.00000E+00
      -6763     1.42025E+01    -1.18037E+01     0.00000E+00     0.00000E+00          0.00000E+00
      -6762     1.41983E+01    -1.18019E+01     0.00000E+00     0.00000E+00          0.00000E+00
      -6761     1.41941E+01    -1.18002E+01     0.00000E+00     0.00000E+00          0.00000E+00
      -6760     1.41899E+01    -1.17984E+01     0.00000E+00     0.00000E+00          0.00000E+00
      -6759     1.41857E+01    -1.17967E+01     0.00000E+00     0.00000E+00          0.00000E+00
      -6758     1.41815E+01    -1.17949E+01     0.00000E+00     0.00000E+00          0.00000E+00
      -6757     1.41773E+01    -1.17932E+01     0.00000E+00     0.00000E+00          0.00000E+00
      -6756     1.41731E+01    -1.17914E+01     0.00000E+00     0.00000E+00          0.00000E+00
      -6755     1.41689E+01    -1.17897E+01     0.00000E+00     0.00000E+00          0.00000E+00
      -6754     1.41647E+01    -1.17880E+01     0.00000E+00     0.00000E+00          0.00000E+00
      -6753     1.41605E+01    -1.17862E+01     0.00000E+00     0.00000E+00          0.00000E+00
      -6752     1.41563E+01    -1.17845E+01     0.00000E+00     0.00000E+00          0.00000E+00
      -6751     1.41521E+01    -1.17827E+01     0.00000E+00     0.00000E+00          0.00000E+00
      -6750     1.41479E+01    -1.17810E+01     0.00000E+00     0.00000E+00          0.00000E+00
      -6749     1.41438E+01    -1.17792E+01     0.00000E+00     0.00000E+00          0.00000E+00
      -6748     1.41396E+01    -1.17775E+01     0.00000E+00     0.00000E+00          0.00000E+00
      -6747     1.41354E+01    -1.17757E+01     0.00000E+00     0.00000E+00          0.00000E+00
      -6746     1.41312E+01    -1.17740E+01     0.00000E+00     0.00000E+00          0.00000E+00
      -6745     1.41270E+01    -1.17722E+01     0.00000E+00     0.00000E+00          0.00000E+00
      -6744     1.41228E+01    -1.17705E+01     0.00000E+00     0.00000E+00          0.00000E+00
      -6743     1.41186E+01    -1.17688E+01     0.00000E+00     0.00000E+00          0.00000E+00
      -6742     1.41144E+01    -1.17670E+01     0.00000E+00     0.00000E+00          0.00000E+00
      -6741     1.41102E+01    -1.17653E+01     0.00000E+00     0.00000E+00          0.00000E+00
      -6740     1.41061E+01    -1.17635E+01     0.00000E+00     0.00000E+00          0.00000E+00
      -6739     1.41019E+01    -1.17618E+01     0.00000E+00     0.00000E+00          0.00000E+00
      -6738     1.40977E+01    -1.17600E+01     0.00000E+00     0.00000E+00          0.00000E+00
      -6737     1.40935E+01    -1.17583E+01     0.00000E+00     0.00000E+00          0.00000E+00
      -6736     1.40893E+01    -1.17565E+01     0.00000E+00     0.00000E+00          0.00000E+00
      -6735     1.40851E+01    -1.17548E+01     0.00000E+00     0.00000E+00          0.00000E+00
      -6734     1.40810E+01    -1.17530E+01     0.00000E+00     0.00000E+00          0.00000E+00
      -6733     1.40768E+01    -1.17513E+01     0.00000E+00     0.00000E+00          0.00000E+00
      -6732     1.40726E+01    -1.17496E+01     0.00000E+00     0.00000E+00          0.00000E+00
      -6731     1.40684E+01    -1.17478E+01     0.00000E+00     0.00000E+00          0.00000E+00
      -6730     1.40642E+01    -1.17461E+01     0.00000E+00     0.00000E+00          0.00000E+00
      -6729     1.40600E+01    -1.17443E+01     0.00000E+00     0.00000E+00          0.00000E+00
      -6728     1.40559E+01    -1.17426E+01     0.00000E+00     0.00000E+00          0.00000E+00
      -6727     1.40517E+01    -1.17408E+01     0.00000E+00     0.00000E+00          0.00000E+00
      -6726     1.40475E+01    -1.17391E+01     0.00000E+00     0.00000E+00          0.00000E+00
      -6725     1.40433E+01    -1.17373E+01     0.00000E+00     0.00000E+00          0.00000E+00
      -6724     1.40392E+01    -1.17356E+01     0.00000E+00     0.00000E+00          0.00000E+00
      -6723     1.40350E+01    -1.17338E+01     0.00000E+00     0.00000E+00          0.00000E+00
      -6722     1.40308E+01    -1.17321E+01     0.00000E+00     0.00000E+00          0.00000E+00
      -6721     1.40266E+01    -1.17304E+01     0.00000E+00     0.00000E+00          0.00000E+00
      -6720     1.40225E+01    -1.17286E+01     0.00000E+00     0.00000E+00          0.00000E+00
      -6719     1.40183E+01    -1.17269E+01     0.00000E+00     0.00000E+00          0.00000E+00
      -6718     1.40141E+01    -1.17251E+01     0.00000E+00     0.00000E+00          0.00000E+00
      -6717     1.40099E+01    -1.17234E+01     0.00000E+00     0.00000E+00          0.00000E+00
      -6716     1.40058E+01    -1.17216E+01     0.00000E+00     0.00000E+00          0.00000E+00
      -6715     1.40016E+01    -1.17199E+01     0.00000E+00     0.00000E+00          0.00000E+00
      -6714     1.39974E+01    -1.17181E+01     0.00000E+00     0.00000E+00          0.00000E+00
      -6713     1.39933E+01    -1.17164E+01     0.00000E+00     0.00000E+00          0.00000E+00
      -6712     1.39891E+01    -1.17147E+01     0.00000E+00     0.00000E+00          0.00000E+00
      -6711     1.39849E+01    -1.17129E+01     0.00000E+00     0.00000E+00          0.00000E+00
      -6710     1.39808E+01    -1.17112E+01     0.00000E+00     0.00000E+00          0.00000E+00
      -6709     1.39766E+01    -1.17094E+01     0.00000E+00     0.00000E+00          0.00000E+00
      -6708     1.39724E+01    -1.17077E+01     0.00000E+00     0.00000E+00          0.00000E+00
      -6707     1.39683E+01    -1.17059E+01     0.00000E+00     0.00000E+00          0.00000E+00
      -6706     1.39641E+01    -1.17042E+01     0.00000E+00     0.00000E+00          0.00000E+00
      -6705     1.39599E+01    -1.17024E+01     0.00000E+00     0.00000E+00          0.00000E+00
      -6704     1.39558E+01    -1.17007E+01     0.00000E+00     0.00000E+00          0.00000E+00
      -6703     1.39516E+01    -1.16989E+01     0.00000E+00     0.00000E+00          0.00000E+00
      -6702     1.39474E+01    -1.16972E+01     0.00000E+00     0.00000E+00          0.00000E+00
      -6701     1.39433E+01    -1.16955E+01     0.00000E+00     0.00000E+00          0.00000E+00
      -6700     1.39391E+01    -1.16937E+01     0.00000E+00     0.00000E+00          0.00000E+00
      -6699     1.39350E+01    -1.16920E+01     0.00000E+00     0.00000E+00          0.00000E+00
      -6698     1.39308E+01    -1.16902E+01     0.00000E+00     0.00000E+00          0.00000E+00
      -6697     1.39266E+01    -1.16885E+01     0.00000E+00     0.00000E+00          0.00000E+00
      -6696     1.39225E+01    -1.16867E+01     0.00000E+00     0.00000E+00          0.00000E+00
      -6695     1.39183E+01    -1.16850E+01     0.00000E+00     0.00000E+00          0.00000E+00
      -6694     1.39142E+01    -1.16832E+01     0.00000E+00     0.00000E+00          0.00000E+00
      -6693     1.39100E+01    -1.16815E+01     0.00000E+00     0.00000E+00          0.00000E+00
      -6692     1.39059E+01    -1.16797E+01     0.00000E+00     0.00000E+00          0.00000E+00
      -6691     1.39017E+01    -1.16780E+01     0.00000E+00     0.00000E+00          0.00000E+00
      -6690     1.38975E+01    -1.16763E+01     0.00000E+00     0.00000E+00          0.00000E+00
      -6689     1.38934E+01    -1.16745E+01     0.00000E+00     0.00000E+00          0.00000E+00
      -6688     1.38892E+01    -1.16728E+01     0.00000E+00     0.00000E+00          0.00000E+00
      -6687     1.38851E+01    -1.16710E+01     0.00000E+00     0.00000E+00          0.00000E+00
      -6686     1.38809E+01    -1.16693E+01     0.00000E+00     0.00000E+00          0.00000E+00
      -6685     1.38768E+01    -1.16675E+01     0.00000E+00     0.00000E+00          0.00000E+00
      -6684     1.38726E+01    -1.16658E+01     0.00000E+00     0.00000E+00          0.00000E+00
      -6683     1.38685E+01    -1.16640E+01     0.00000E+00     0.00000E+00          0.00000E+00
      -6682     1.38643E+01    -1.16623E+01     0.00000E+00     0.00000E+00          0.00000E+00
      -6681     1.38602E+01    -1.16605E+01     0.00000E+00     0.00000E+00          0.00000E+00
      -6680     1.38560E+01    -1.16588E+01     0.00000E+00     0.00000E+00          0.00000E+00
      -6679     1.38519E+01    -1.16571E+01     0.00000E+00     0.00000E+00          0.00000E+00
      -6678     1.38477E+01    -1.16553E+01     0.00000E+00     0.00000E+00          0.00000E+00
      -6677     1.38436E+01    -1.16536E+01     0.00000E+00     0.00000E+00          0.00000E+00
      -6676     1.38394E+01    -1.16518E+01     0.00000E+00     0.00000E+00          0.00000E+00
      -6675     1.38353E+01    -1.16501E+01     0.00000E+00     0.00000E+00          0.00000E+00
      -6674     1.38311E+01    -1.16483E+01     0.00000E+00     0.00000E+00          0.00000E+00
      -6673     1.38270E+01    -1.16466E+01     0.00000E+00     0.00000E+00          0.00000E+00
      -6672     1.38229E+01    -1.16448E+01     0.00000E+00     0.00000E+00          0.00000E+00
      -6671     1.38187E+01    -1.16431E+01     0.00000E+00     0.00000E+00          0.00000E+00
      -6670     1.38146E+01    -1.16413E+01     0.00000E+00     0.00000E+00          0.00000E+00
      -6669     1.38104E+01    -1.16396E+01     0.00000E+00     0.00000E+00          0.00000E+00
      -6668     1.38063E+01    -1.16379E+01     0.00000E+00     0.00000E+00          0.00000E+00
      -6667     1.38021E+01    -1.16361E+01     0.00000E+00     0.00000E+00          0.00000E+00
      -6666     1.37980E+01    -1.16344E+01     0.00000E+00     0.00000E+00          0.00000E+00
      -6665     1.37939E+01    -1.16326E+01     0.00000E+00     0.00000E+00          0.00000E+00
      -6664     1.37897E+01    -1.16309E+01     0.00000E+00     0.00000E+00          0.00000E+00
      -6663     1.37856E+01    -1.16291E+01     0.00000E+00     0.00000E+00          0.00000E+00
      -6662     1.37815E+01    -1.16274E+01     0.00000E+00     0.00000E+00          0.00000E+00
      -6661     1.37773E+01    -1.16256E+01     0.00000E+00     0.00000E+00          0.00000E+00
      -6660     1.37732E+01    -1.16239E+01     0.00000E+00     0.00000E+00          0.00000E+00
      -6659     1.37690E+01    -1.16221E+01     0.00000E+00     0.00000E+00          0.00000E+00
      -6658     1.37649E+01    -1.16204E+01     0.00000E+00     0.00000E+00          0.00000E+00
      -6657     1.37608E+01    -1.16187E+01     0.00000E+00     0.00000E+00          0.00000E+00
      -6656     1.37566E+01    -1.16169E+01     0.00000E+00     0.00000E+00          0.00000E+00
      -6655     1.37525E+01    -1.16152E+01     0.00000E+00     0.00000E+00          0.00000E+00
      -6654     1.37484E+01    -1.16134E+01     0.00000E+00     0.00000E+00          0.00000E+00
      -6653     1.37442E+01    -1.16117E+01     0.00000E+00     0.00000E+00          0.00000E+00
      -6652     1.37401E+01    -1.16099E+01     0.00000E+00     0.00000E+00          0.00000E+00
      -6651     1.37360E+01    -1.16082E+01     0.00000E+00     0.00000E+00          0.00000E+00
      -6650     1.37319E+01    -1.16064E+01     0.00000E+00     0.00000E+00          0.00000E+00
      -6649     1.37277E+01    -1.16047E+01     0.00000E+00     0.00000E+00          0.00000E+00
      -6648     1.37236E+01    -1.16029E+01     0.00000E+00     0.00000E+00          0.00000E+00
      -6647     1.37195E+01    -1.16012E+01     0.00000E+00     0.00000E+00          0.00000E+00
      -6646     1.37153E+01    -1.15995E+01     0.00000E+00     0.00000E+00          0.00000E+00
      -6645     1.37112E+01    -1.15977E+01     0.00000E+00     0.00000E+00          0.00000E+00
      -6644     1.37071E+01    -1.15960E+01     0.00000E+00     0.00000E+00          0.00000E+00
      -6643     1.37030E+01    -1.15942E+01     0.00000E+00     0.00000E+00          0.00000E+00
      -6642     1.36988E+01    -1.15925E+01     0.00000E+00     0.00000E+00          0.00000E+00
      -6641     1.36947E+01    -1.15907E+01     0.00000E+00     0.00000E+00          0.00000E+00
      -6640     1.36906E+01    -1.15890E+01     0.00000E+00     0.00000E+00          0.00000E+00
      -6639     1.36865E+01    -1.15872E+01     0.00000E+00     0.00000E+00          0.00000E+00
      -6638     1.36823E+01    -1.15855E+01     0.00000E+00     0.00000E+00          0.00000E+00
      -6637     1.36782E+01    -1.15838E+01     0.00000E+00     0.00000E+00          0.00000E+00
      -6636     1.36741E+01    -1.15820E+01     0.00000E+00     0.00000E+00          0.00000E+00
      -6635     1.36700E+01    -1.15803E+01     0.00000E+00     0.00000E+00          0.00000E+00
      -6634     1.36659E+01    -1.15785E+01     0.00000E+00     0.00000E+00          0.00000E+00
      -6633     1.36617E+01    -1.15768E+01     0.00000E+00     0.00000E+00          0.00000E+00
      -6632     1.36576E+01    -1.15750E+01     0.00000E+00     0.00000E+00          0.00000E+00
      -6631     1.36535E+01    -1.15733E+01     0.00000E+00     0.00000E+00          0.00000E+00
      -6630     1.36494E+01    -1.15715E+01     0.00000E+00     0.00000E+00          0.00000E+00
      -6629     1.36453E+01    -1.15698E+01     0.00000E+00     0.00000E+00          0.00000E+00
      -6628     1.36411E+01    -1.15680E+01     0.00000E+00     0.00000E+00          0.00000E+00
      -6627     1.36370E+01    -1.15663E+01     0.00000E+00     0.00000E+00          0.00000E+00
      -6626     1.36329E+01    -1.15646E+01     0.00000E+00     0.00000E+00          0.00000E+00
      -6625     1.36288E+01    -1.15628E+01     0.00000E+00     0.00000E+00          0.00000E+00
      -6624     1.36247E+01    -1.15611E+01     0.00000E+00     0.00000E+00          0.00000E+00
      -6623     1.36206E+01    -1.15593E+01     0.00000E+00     0.00000E+00          0.00000E+00
      -6622     1.36165E+01    -1.15576E+01     0.00000E+00     0.00000E+00          0.00000E+00
      -6621     1.36123E+01    -1.15558E+01     0.00000E+00     0.00000E+00          0.00000E+00
      -6620     1.36082E+01    -1.15541E+01     0.00000E+00     0.00000E+00          0.00000E+00
      -6619     1.36041E+01    -1.15523E+01     0.00000E+00     0.00000E+00          0.00000E+00
      -6618     1.36000E+01    -1.15506E+01     0.00000E+00     0.00000E+00          0.00000E+00
      -6617     1.35959E+01    -1.15488E+01     0.00000E+00     0.00000E+00          0.00000E+00
      -6616     1.35918E+01    -1.15471E+01     0.00000E+00     0.00000E+00          0.00000E+00
      -6615     1.35877E+01    -1.15454E+01     0.00000E+00     0.00000E+00          0.00000E+00
      -6614     1.35836E+01    -1.15436E+01     0.00000E+00     0.00000E+00          0.00000E+00
      -6613     1.35795E+01    -1.15419E+01     0.00000E+00     0.00000E+00          0.00000E+00
      -6612     1.35754E+01    -1.15401E+01     0.00000E+00     0.00000E+00          0.00000E+00
      -6611     1.35713E+01    -1.15384E+01     0.00000E+00     0.00000E+00          0.00000E+00
      -6610     1.35672E+01    -1.15366E+01     0.00000E+00     0.00000E+00          0.00000E+00
      -6609     1.35630E+01    -1.15349E+01     0.00000E+00     0.00000E+00          0.00000E+00
      -6608     1.35589E+01    -1.15331E+01     0.00000E+00     0.00000E+00          0.00000E+00
      -6607     1.35548E+01    -1.15314E+01     0.00000E+00     0.00000E+00          0.00000E+00
      -6606     1.35507E+01    -1.15296E+01     0.00000E+00     0.00000E+00          0.00000E+00
      -6605     1.35466E+01    -1.15279E+01     0.00000E+00     0.00000E+00          0.00000E+00
      -6604     1.35425E+01    -1.15262E+01     0.00000E+00     0.00000E+00          0.00000E+00
      -6603     1.35384E+01    -1.15244E+01     0.00000E+00     0.00000E+00          0.00000E+00
      -6602     1.35343E+01    -1.15227E+01     0.00000E+00     0.00000E+00          0.00000E+00
      -6601     1.35302E+01    -1.15209E+01     0.00000E+00     0.00000E+00          0.00000E+00
      -6600     1.35261E+01    -1.15192E+01     0.00000E+00     0.00000E+00          0.00000E+00
      -6599     1.35220E+01    -1.15174E+01     0.00000E+00     0.00000E+00          0.00000E+00
      -6598     1.35179E+01    -1.15157E+01     0.00000E+00     0.00000E+00          0.00000E+00
      -6597     1.35138E+01    -1.15139E+01     0.00000E+00     0.00000E+00          0.00000E+00
      -6596     1.35097E+01    -1.15122E+01     0.00000E+00     0.00000E+00          0.00000E+00
      -6595     1.35056E+01    -1.15104E+01     0.00000E+00     0.00000E+00          0.00000E+00
      -6594     1.35016E+01    -1.15087E+01     0.00000E+00     0.00000E+00          0.00000E+00
      -6593     1.34975E+01    -1.15070E+01     0.00000E+00     0.00000E+00          0.00000E+00
      -6592     1.34934E+01    -1.15052E+01     0.00000E+00     0.00000E+00          0.00000E+00
      -6591     1.34893E+01    -1.15035E+01     0.00000E+00     0.00000E+00          0.00000E+00
      -6590     1.34852E+01    -1.15017E+01     0.00000E+00     0.00000E+00          0.00000E+00
      -6589     1.34811E+01    -1.15000E+01     0.00000E+00     0.00000E+00          0.00000E+00
      -6588     1.34770E+01    -1.14982E+01     0.00000E+00     0.00000E+00          0.00000E+00
      -6587     1.34729E+01    -1.14965E+01     0.00000E+00     0.00000E+00          0.00000E+00
      -6586     1.34688E+01    -1.14947E+01     0.00000E+00     0.00000E+00          0.00000E+00
      -6585     1.34647E+01    -1.14930E+01     0.00000E+00     0.00000E+00          0.00000E+00
      -6584     1.34606E+01    -1.14912E+01     0.00000E+00     0.00000E+00          0.00000E+00
      -6583     1.34565E+01    -1.14895E+01     0.00000E+00     0.00000E+00          0.00000E+00
      -6582     1.34525E+01    -1.14878E+01     0.00000E+00     0.00000E+00          0.00000E+00
      -6581     1.34484E+01    -1.14860E+01     0.00000E+00     0.00000E+00          0.00000E+00
      -6580     1.34443E+01    -1.14843E+01     0.00000E+00     0.00000E+00          0.00000E+00
      -6579     1.34402E+01    -1.14825E+01     0.00000E+00     0.00000E+00          0.00000E+00
      -6578     1.34361E+01    -1.14808E+01     0.00000E+00     0.00000E+00          0.00000E+00
      -6577     1.34320E+01    -1.14790E+01     0.00000E+00     0.00000E+00          0.00000E+00
      -6576     1.34279E+01    -1.14773E+01     0.00000E+00     0.00000E+00          0.00000E+00
      -6575     1.34239E+01    -1.14755E+01     0.00000E+00     0.00000E+00          0.00000E+00
      -6574     1.34198E+01    -1.14738E+01     0.00000E+00     0.00000E+00          0.00000E+00
      -6573     1.34157E+01    -1.14720E+01     0.00000E+00     0.00000E+00          0.00000E+00
      -6572     1.34116E+01    -1.14703E+01     0.00000E+00     0.00000E+00          0.00000E+00
      -6571     1.34075E+01    -1.14686E+01     0.00000E+00     0.00000E+00          0.00000E+00
      -6570     1.34034E+01    -1.14668E+01     0.00000E+00     0.00000E+00          0.00000E+00
      -6569     1.33994E+01    -1.14651E+01     0.00000E+00     0.00000E+00          0.00000E+00
      -6568     1.33953E+01    -1.14633E+01     0.00000E+00     0.00000E+00          0.00000E+00
      -6567     1.33912E+01    -1.14616E+01     0.00000E+00     0.00000E+00          0.00000E+00
      -6566     1.33871E+01    -1.14598E+01     0.00000E+00     0.00000E+00          0.00000E+00
      -6565     1.33831E+01    -1.14581E+01     0.00000E+00     0.00000E+00          0.00000E+00
      -6564     1.33790E+01    -1.14563E+01     0.00000E+00     0.00000E+00          0.00000E+00
      -6563     1.33749E+01    -1.14546E+01     0.00000E+00     0.00000E+00          0.00000E+00
      -6562     1.33708E+01    -1.14529E+01     0.00000E+00     0.00000E+00          0.00000E+00
      -6561     1.33667E+01    -1.14511E+01     0.00000E+00     0.00000E+00          0.00000E+00
      -6560     1.33627E+01    -1.14494E+01     0.00000E+00     0.00000E+00          0.00000E+00
      -6559     1.33586E+01    -1.14476E+01     0.00000E+00     0.00000E+00          0.00000E+00
      -6558     1.33545E+01    -1.14459E+01     0.00000E+00     0.00000E+00          0.00000E+00
      -6557     1.33505E+01    -1.14441E+01     0.00000E+00     0.00000E+00          0.00000E+00
      -6556     1.33464E+01    -1.14424E+01     0.00000E+00     0.00000E+00          0.00000E+00
      -6555     1.33423E+01    -1.14406E+01     0.00000E+00     0.00000E+00          0.00000E+00
      -6554     1.33382E+01    -1.14389E+01     0.00000E+00     0.00000E+00          0.00000E+00
      -6553     1.33342E+01    -1.14371E+01     0.00000E+00     0.00000E+00          0.00000E+00
      -6552     1.33301E+01    -1.14354E+01     0.00000E+00     0.00000E+00          0.00000E+00
      -6551     1.33260E+01    -1.14337E+01     0.00000E+00     0.00000E+00          0.00000E+00
      -6550     1.33220E+01    -1.14319E+01     0.00000E+00     0.00000E+00          0.00000E+00
      -6549     1.33179E+01    -1.14302E+01     0.00000E+00     0.00000E+00          0.00000E+00
      -6548     1.33138E+01    -1.14284E+01     0.00000E+00     0.00000E+00          0.00000E+00
      -6547     1.33098E+01    -1.14267E+01     0.00000E+00     0.00000E+00          0.00000E+00
      -6546     1.33057E+01    -1.14249E+01     0.00000E+00     0.00000E+00          0.00000E+00
      -6545     1.33016E+01    -1.14232E+01     0.00000E+00     0.00000E+00          0.00000E+00
      -6544     1.32976E+01    -1.14214E+01     0.00000E+00     0.00000E+00          0.00000E+00
      -6543     1.32935E+01    -1.14197E+01     0.00000E+00     0.00000E+00          0.00000E+00
      -6542     1.32894E+01    -1.14179E+01     0.00000E+00     0.00000E+00          0.00000E+00
      -6541     1.32854E+01    -1.14162E+01     0.00000E+00     0.00000E+00          0.00000E+00
      -6540     1.32813E+01    -1.14145E+01     0.00000E+00     0.00000E+00          0.00000E+00
      -6539     1.32773E+01    -1.14127E+01     0.00000E+00     0.00000E+00          0.00000E+00
      -6538     1.32732E+01    -1.14110E+01     0.00000E+00     0.00000E+00          0.00000E+00
      -6537     1.32691E+01    -1.14092E+01     0.00000E+00     0.00000E+00          0.00000E+00
      -6536     1.32651E+01    -1.14075E+01     0.00000E+00     0.00000E+00          0.00000E+00
      -6535     1.32610E+01    -1.14057E+01     0.00000E+00     0.00000E+00          0.00000E+00
      -6534     1.32570E+01    -1.14040E+01     0.00000E+00     0.00000E+00          0.00000E+00
      -6533     1.32529E+01    -1.14022E+01     0.00000E+00     0.00000E+00          0.00000E+00
      -6532     1.32488E+01    -1.14005E+01     0.00000E+00     0.00000E+00          0.00000E+00
      -6531     1.32448E+01    -1.13987E+01     0.00000E+00     0.00000E+00          0.00000E+00
      -6530     1.32407E+01    -1.13970E+01     0.00000E+00     0.00000E+00          0.00000E+00
      -6529     1.32367E+01    -1.13953E+01     0.00000E+00     0.00000E+00          0.00000E+00
      -6528     1.32326E+01    -1.13935E+01     0.00000E+00     0.00000E+00          0.00000E+00
      -6527     1.32286E+01    -1.13918E+01     0.00000E+00     0.00000E+00          0.00000E+00
      -6526     1.32245E+01    -1.13900E+01     0.00000E+00     0.00000E+00          0.00000E+00
      -6525     1.32205E+01    -1.13883E+01     0.00000E+00     0.00000E+00          0.00000E+00
      -6524     1.32164E+01    -1.13865E+01     0.00000E+00     0.00000E+00          0.00000E+00
      -6523     1.32124E+01    -1.13848E+01     0.00000E+00     0.00000E+00          0.00000E+00
      -6522     1.32083E+01    -1.13830E+01     0.00000E+00     0.00000E+00          0.00000E+00
      -6521     1.32043E+01    -1.13813E+01     0.00000E+00     0.00000E+00          0.00000E+00
      -6520     1.32002E+01    -1.13795E+01     0.00000E+00     0.00000E+00          0.00000E+00
      -6519     1.31962E+01    -1.13778E+01     0.00000E+00     0.00000E+00          0.00000E+00
      -6518     1.31921E+01    -1.13761E+01     0.00000E+00     0.00000E+00          0.00000E+00
      -6517     1.31881E+01    -1.13743E+01     0.00000E+00     0.00000E+00          0.00000E+00
      -6516     1.31840E+01    -1.13726E+01     0.00000E+00     0.00000E+00          0.00000E+00
      -6515     1.31800E+01    -1.13708E+01     0.00000E+00     0.00000E+00          0.00000E+00
      -6514     1.31759E+01    -1.13691E+01     0.00000E+00     0.00000E+00          0.00000E+00
      -6513     1.31719E+01    -1.13673E+01     0.00000E+00     0.00000E+00          0.00000E+00
      -6512     1.31678E+01    -1.13656E+01     0.00000E+00     0.00000E+00          0.00000E+00
      -6511     1.31638E+01    -1.13638E+01     0.00000E+00     0.00000E+00          0.00000E+00
      -6510     1.31598E+01    -1.13621E+01     0.00000E+00     0.00000E+00          0.00000E+00
      -6509     1.31557E+01    -1.13603E+01     0.00000E+00     0.00000E+00          0.00000E+00
      -6508     1.31517E+01    -1.13586E+01     0.00000E+00     0.00000E+00          0.00000E+00
      -6507     1.31476E+01    -1.13569E+01     0.00000E+00     0.00000E+00          0.00000E+00
      -6506     1.31436E+01    -1.13551E+01     0.00000E+00     0.00000E+00          0.00000E+00
      -6505     1.31395E+01    -1.13534E+01     0.00000E+00     0.00000E+00          0.00000E+00
      -6504     1.31355E+01    -1.13516E+01     0.00000E+00     0.00000E+00          0.00000E+00
      -6503     1.31315E+01    -1.13499E+01     0.00000E+00     0.00000E+00          0.00000E+00
      -6502     1.31274E+01    -1.13481E+01     0.00000E+00     0.00000E+00          0.00000E+00
      -6501     1.31234E+01    -1.13464E+01     0.00000E+00     0.00000E+00          0.00000E+00
      -6500     1.31194E+01    -1.13446E+01     0.00000E+00     0.00000E+00          0.00000E+00
      -6499     1.31153E+01    -1.13429E+01     0.00000E+00     0.00000E+00          0.00000E+00
      -6498     1.31113E+01    -1.13412E+01     0.00000E+00     0.00000E+00          0.00000E+00
      -6497     1.31072E+01    -1.13394E+01     0.00000E+00     0.00000E+00          0.00000E+00
      -6496     1.31032E+01    -1.13377E+01     0.00000E+00     0.00000E+00          0.00000E+00
      -6495     1.30992E+01    -1.13359E+01     0.00000E+00     0.00000E+00          0.00000E+00
      -6494     1.30951E+01    -1.13342E+01     0.00000E+00     0.00000E+00          0.00000E+00
      -6493     1.30911E+01    -1.13324E+01     0.00000E+00     0.00000E+00          0.00000E+00
      -6492     1.30871E+01    -1.13307E+01     0.00000E+00     0.00000E+00          0.00000E+00
      -6491     1.30830E+01    -1.13289E+01     0.00000E+00     0.00000E+00          0.00000E+00
      -6490     1.30790E+01    -1.13272E+01     0.00000E+00     0.00000E+00          0.00000E+00
      -6489     1.30750E+01    -1.13254E+01     0.00000E+00     0.00000E+00          0.00000E+00
      -6488     1.30710E+01    -1.13237E+01     0.00000E+00     0.00000E+00          0.00000E+00
      -6487     1.30669E+01    -1.13220E+01     0.00000E+00     0.00000E+00          0.00000E+00
      -6486     1.30629E+01    -1.13202E+01     0.00000E+00     0.00000E+00          0.00000E+00
      -6485     1.30589E+01    -1.13185E+01     0.00000E+00     0.00000E+00          0.00000E+00
      -6484     1.30548E+01    -1.13167E+01     0.00000E+00     0.00000E+00          0.00000E+00
      -6483     1.30508E+01    -1.13150E+01     0.00000E+00     0.00000E+00          0.00000E+00
      -6482     1.30468E+01    -1.13132E+01     0.00000E+00     0.00000E+00          0.00000E+00
      -6481     1.30428E+01    -1.13115E+01     0.00000E+00     0.00000E+00          0.00000E+00
      -6480     1.30387E+01    -1.13097E+01     0.00000E+00     0.00000E+00          0.00000E+00
      -6479     1.30347E+01    -1.13080E+01     0.00000E+00     0.00000E+00          0.00000E+00
      -6478     1.30307E+01    -1.13062E+01     0.00000E+00     0.00000E+00          0.00000E+00
      -6477     1.30267E+01    -1.13045E+01     0.00000E+00     0.00000E+00          0.00000E+00
      -6476     1.30226E+01    -1.13028E+01     0.00000E+00     0.00000E+00          0.00000E+00
      -6475     1.30186E+01    -1.13010E+01     0.00000E+00     0.00000E+00          0.00000E+00
      -6474     1.30146E+01    -1.12993E+01     0.00000E+00     0.00000E+00          0.00000E+00
      -6473     1.30106E+01    -1.12975E+01     0.00000E+00     0.00000E+00          0.00000E+00
      -6472     1.30066E+01    -1.12958E+01     0.00000E+00     0.00000E+00          0.00000E+00
      -6471     1.30026E+01    -1.12940E+01     0.00000E+00     0.00000E+00          0.00000E+00
      -6470     1.29985E+01    -1.12923E+01     0.00000E+00     0.00000E+00          0.00000E+00
      -6469     1.29945E+01    -1.12905E+01     0.00000E+00     0.00000E+00          0.00000E+00
      -6468     1.29905E+01    -1.12888E+01     0.00000E+00     0.00000E+00          0.00000E+00
      -6467     1.29865E+01    -1.12870E+01     0.00000E+00     0.00000E+00          0.00000E+00
      -6466     1.29825E+01    -1.12853E+01     0.00000E+00     0.00000E+00          0.00000E+00
      -6465     1.29784E+01    -1.12836E+01     0.00000E+00     0.00000E+00          0.00000E+00
      -6464     1.29744E+01    -1.12818E+01     0.00000E+00     0.00000E+00          0.00000E+00
      -6463     1.29704E+01    -1.12801E+01     0.00000E+00     0.00000E+00          0.00000E+00
      -6462     1.29664E+01    -1.12783E+01     0.00000E+00     0.00000E+00          0.00000E+00
      -6461     1.29624E+01    -1.12766E+01     0.00000E+00     0.00000E+00          0.00000E+00
      -6460     1.29584E+01    -1.12748E+01     0.00000E+00     0.00000E+00          0.00000E+00
      -6459     1.29544E+01    -1.12731E+01     0.00000E+00     0.00000E+00          0.00000E+00
      -6458     1.29504E+01    -1.12713E+01     0.00000E+00     0.00000E+00          0.00000E+00
      -6457     1.29463E+01    -1.12696E+01     0.00000E+00     0.00000E+00          0.00000E+00
      -6456     1.29423E+01    -1.12678E+01     0.00000E+00     0.00000E+00          0.00000E+00
      -6455     1.29383E+01    -1.12661E+01     0.00000E+00     0.00000E+00          0.00000E+00
      -6454     1.29343E+01    -1.12644E+01     0.00000E+00     0.00000E+00          0.00000E+00
      -6453     1.29303E+01    -1.12626E+01     0.00000E+00     0.00000E+00          0.00000E+00
      -6452     1.29263E+01    -1.12609E+01     0.00000E+00     0.00000E+00          0.00000E+00
      -6451     1.29223E+01    -1.12591E+01     0.00000E+00     0.00000E+00          0.00000E+00
      -6450     1.29183E+01    -1.12574E+01     0.00000E+00     0.00000E+00          0.00000E+00
      -6449     1.29143E+01    -1.12556E+01     0.00000E+00     0.00000E+00          0.00000E+00
      -6448     1.29103E+01    -1.12539E+01     0.00000E+00     0.00000E+00          0.00000E+00
      -6447     1.29063E+01    -1.12521E+01     0.00000E+00     0.00000E+00          0.00000E+00
      -6446     1.29023E+01    -1.12504E+01     0.00000E+00     0.00000E+00          0.00000E+00
      -6445     1.28983E+01    -1.12486E+01     0.00000E+00     0.00000E+00          0.00000E+00
      -6444     1.28943E+01    -1.12469E+01     0.00000E+00     0.00000E+00          0.00000E+00
      -6443     1.28903E+01    -1.12452E+01     0.00000E+00     0.00000E+00          0.00000E+00
      -6442     1.28863E+01    -1.12434E+01     0.00000E+00     0.00000E+00          0.00000E+00
      -6441     1.28823E+01    -1.12417E+01     0.00000E+00     0.00000E+00          0.00000E+00
      -6440     1.28783E+01    -1.12399E+01     0.00000E+00     0.00000E+00          0.00000E+00
      -6439     1.28743E+01    -1.12382E+01     0.00000E+00     0.00000E+00          0.00000E+00
      -6438     1.28703E+01    -1.12364E+01     0.00000E+00     0.00000E+00          0.00000E+00
      -6437     1.28663E+01    -1.12347E+01     0.00000E+00     0.00000E+00          0.00000E+00
      -6436     1.28623E+01    -1.12329E+01     0.00000E+00     0.00000E+00          0.00000E+00
      -6435     1.28583E+01    -1.12312E+01     0.00000E+00     0.00000E+00          0.00000E+00
      -6434     1.28543E+01    -1.12294E+01     0.00000E+00     0.00000E+00          0.00000E+00
      -6433     1.28503E+01    -1.12277E+01     0.00000E+00     0.00000E+00          0.00000E+00
      -6432     1.28463E+01    -1.12260E+01     0.00000E+00     0.00000E+00          0.00000E+00
      -6431     1.28423E+01    -1.12242E+01     0.00000E+00     0.00000E+00          0.00000E+00
      -6430     1.28383E+01    -1.12225E+01     0.00000E+00     0.00000E+00          0.00000E+00
      -6429     1.28343E+01    -1.12207E+01     0.00000E+00     0.00000E+00          0.00000E+00
      -6428     1.28303E+01    -1.12190E+01     0.00000E+00     0.00000E+00          0.00000E+00
      -6427     1.28263E+01    -1.12172E+01     0.00000E+00     0.00000E+00          0.00000E+00
      -6426     1.28223E+01    -1.12155E+01     0.00000E+00     0.00000E+00          0.00000E+00
      -6425     1.28183E+01    -1.12137E+01     0.00000E+00     0.00000E+00          0.00000E+00
      -6424     1.28144E+01    -1.12120E+01     0.00000E+00     0.00000E+00          0.00000E+00
      -6423     1.28104E+01    -1.12103E+01     0.00000E+00     0.00000E+00          0.00000E+00
      -6422     1.28064E+01    -1.12085E+01     0.00000E+00     0.00000E+00          0.00000E+00
      -6421     1.28024E+01    -1.12068E+01     0.00000E+00     0.00000E+00          0.00000E+00
      -6420     1.27984E+01    -1.12050E+01     0.00000E+00     0.00000E+00          0.00000E+00
      -6419     1.27944E+01    -1.12033E+01     0.00000E+00     0.00000E+00          0.00000E+00
      -6418     1.27904E+01    -1.12015E+01     0.00000E+00     0.00000E+00          0.00000E+00
      -6417     1.27864E+01    -1.11998E+01     0.00000E+00     0.00000E+00          0.00000E+00
      -6416     1.27825E+01    -1.11980E+01     0.00000E+00     0.00000E+00          0.00000E+00
      -6415     1.27785E+01    -1.11963E+01     0.00000E+00     0.00000E+00          0.00000E+00
      -6414     1.27745E+01    -1.11945E+01     0.00000E+00     0.00000E+00          0.00000E+00
      -6413     1.27705E+01    -1.11928E+01     0.00000E+00     0.00000E+00          0.00000E+00
      -6412     1.27665E+01    -1.11911E+01     0.00000E+00     0.00000E+00          0.00000E+00
      -6411     1.27625E+01    -1.11893E+01     0.00000E+00     0.00000E+00          0.00000E+00
      -6410     1.27586E+01    -1.11876E+01     0.00000E+00     0.00000E+00          0.00000E+00
      -6409     1.27546E+01    -1.11858E+01     0.00000E+00     0.00000E+00          0.00000E+00
      -6408     1.27506E+01    -1.11841E+01     0.00000E+00     0.00000E+00          0.00000E+00
      -6407     1.27466E+01    -1.11823E+01     0.00000E+00     0.00000E+00          0.00000E+00
      -6406     1.27426E+01    -1.11806E+01     0.00000E+00     0.00000E+00          0.00000E+00
      -6405     1.27387E+01    -1.11788E+01     0.00000E+00     0.00000E+00          0.00000E+00
      -6404     1.27347E+01    -1.11771E+01     0.00000E+00     0.00000E+00          0.00000E+00
      -6403     1.27307E+01    -1.11753E+01     0.00000E+00     0.00000E+00          0.00000E+00
      -6402     1.27267E+01    -1.11736E+01     0.00000E+00     0.00000E+00          0.00000E+00
      -6401     1.27228E+01    -1.11719E+01     0.00000E+00     0.00000E+00          0.00000E+00
      -6400     1.27188E+01    -1.11701E+01     0.00000E+00     0.00000E+00          0.00000E+00
      -6399     1.27148E+01    -1.11684E+01     0.00000E+00     0.00000E+00          0.00000E+00
      -6398     1.27108E+01    -1.11666E+01     0.00000E+00     0.00000E+00          0.00000E+00
      -6397     1.27069E+01    -1.11649E+01     0.00000E+00     0.00000E+00          0.00000E+00
      -6396     1.27029E+01    -1.11631E+01     0.00000E+00     0.00000E+00          0.00000E+00
      -6395     1.26989E+01    -1.11614E+01     0.00000E+00     0.00000E+00          0.00000E+00
      -6394     1.26950E+01    -1.11596E+01     0.00000E+00     0.00000E+00          0.00000E+00
      -6393     1.26910E+01    -1.11579E+01     0.00000E+00     0.00000E+00          0.00000E+00
      -6392     1.26870E+01    -1.11561E+01     0.00000E+00     0.00000E+00          0.00000E+00
      -6391     1.26830E+01    -1.11544E+01     0.00000E+00     0.00000E+00          0.00000E+00
      -6390     1.26791E+01    -1.11527E+01     0.00000E+00     0.00000E+00          0.00000E+00
      -6389     1.26751E+01    -1.11509E+01     0.00000E+00     0.00000E+00          0.00000E+00
      -6388     1.26711E+01    -1.11492E+01     0.00000E+00     0.00000E+00          0.00000E+00
      -6387     1.26672E+01    -1.11474E+01     0.00000E+00     0.00000E+00          0.00000E+00
[...]
       6998     1.52067E+01     1.22138E+01     0.00000E+00     0.00000E+00          0.00000E+00
       6999     1.52110E+01     1.22156E+01     0.00000E+00     0.00000E+00          0.00000E+00
       7000     1.52153E+01     1.22173E+01     0.00000E+00     0.00000E+00          0.00000E+00
       7001     1.52197E+01     1.22191E+01     0.00000E+00     0.00000E+00          0.00000E+00
       7002     1.52240E+01     1.22208E+01     0.00000E+00     0.00000E+00          0.00000E+00
       7003     1.52284E+01     1.22225E+01     0.00000E+00     0.00000E+00          0.00000E+00
       7004     1.52327E+01     1.22243E+01     0.00000E+00     0.00000E+00          0.00000E+00
       7005     1.52371E+01     1.22260E+01     0.00000E+00     0.00000E+00          0.00000E+00
       7006     1.52414E+01     1.22278E+01     0.00000E+00     0.00000E+00          0.00000E+00
       7007     1.52458E+01     1.22295E+01     0.00000E+00     0.00000E+00          0.00000E+00
       7008     1.52501E+01     1.22313E+01     0.00000E+00     0.00000E+00          0.00000E+00
       7009     1.52545E+01     1.22330E+01     0.00000E+00     0.00000E+00          0.00000E+00
       7010     1.52589E+01     1.22348E+01     0.00000E+00     0.00000E+00          0.00000E+00
       7011     1.52632E+01     1.22365E+01     0.00000E+00     0.00000E+00          0.00000E+00
       7012     1.52676E+01     1.22382E+01     0.00000E+00     0.00000E+00          0.00000E+00
       7013     1.52719E+01     1.22400E+01     0.00000E+00     0.00000E+00          0.00000E+00
       7014     1.52763E+01     1.22417E+01     0.00000E+00     0.00000E+00          0.00000E+00
       7015     1.52806E+01     1.22435E+01     0.00000E+00     0.00000E+00          0.00000E+00
       7016     1.52850E+01     1.22452E+01     0.00000E+00     0.00000E+00          0.00000E+00
       7017     1.52893E+01     1.22470E+01     0.00000E+00     0.00000E+00          0.00000E+00
       7018     1.52937E+01     1.22487E+01     0.00000E+00     0.00000E+00          0.00000E+00
       7019     1.52981E+01     1.22505E+01     0.00000E+00     0.00000E+00          0.00000E+00
       7020     1.53024E+01     1.22522E+01     0.00000E+00     0.00000E+00          0.00000E+00
       7021     1.53068E+01     1.22540E+01     0.00000E+00     0.00000E+00          0.00000E+00
       7022     1.53111E+01     1.22557E+01     0.00000E+00     0.00000E+00          0.00000E+00
       7023     1.53155E+01     1.22574E+01     0.00000E+00     0.00000E+00          0.00000E+00
       7024     1.53199E+01     1.22592E+01     0.00000E+00     0.00000E+00          0.00000E+00
       7025     1.53242E+01     1.22609E+01     0.00000E+00     0.00000E+00          0.00000E+00
       7026     1.53286E+01     1.22627E+01     0.00000E+00     0.00000E+00          0.00000E+00
       7027     1.53329E+01     1.22644E+01     0.00000E+00     0.00000E+00          0.00000E+00
       7028     1.53373E+01     1.22662E+01     0.00000E+00     0.00000E+00          0.00000E+00
       7029     1.53417E+01     1.22679E+01     0.00000E+00     0.00000E+00          0.00000E+00
       7030     1.53460E+01     1.22697E+01     0.00000E+00     0.00000E+00          0.00000E+00
       7031     1.53504E+01     1.22714E+01     0.00000E+00     0.00000E+00          0.00000E+00
       7032     1.53548E+01     1.22732E+01     0.00000E+00     0.00000E+00          0.00000E+00
       7033     1.53591E+01     1.22749E+01     0.00000E+00     0.00000E+00          0.00000E+00
       7034     1.53635E+01     1.22766E+01     0.00000E+00     0.00000E+00          0.00000E+00
       7035     1.53679E+01     1.22784E+01     0.00000E+00     0.00000E+00          0.00000E+00
       7036     1.53722E+01     1.22801E+01     0.00000E+00     0.00000E+00          0.00000E+00
       7037     1.53766E+01     1.22819E+01     0.00000E+00     0.00000E+00          0.00000E+00
       7038     1.53810E+01     1.22836E+01     0.00000E+00     0.00000E+00          0.00000E+00
       7039     1.53854E+01     1.22854E+01     0.00000E+00     0.00000E+00          0.00000E+00
       7040     1.53897E+01     1.22871E+01     0.00000E+00     0.00000E+00          0.00000E+00
       7041     1.53941E+01     1.22889E+01     0.00000E+00     0.00000E+00          0.00000E+00
       7042     1.53985E+01     1.22906E+01     0.00000E+00     0.00000E+00          0.00000E+00
       7043     1.54029E+01     1.22924E+01     0.00000E+00     0.00000E+00          0.00000E+00
       7044     1.54072E+01     1.22941E+01     0.00000E+00     0.00000E+00          0.00000E+00
       7045     1.54116E+01     1.22958E+01     0.00000E+00     0.00000E+00          0.00000E+00
       7046     1.54160E+01     1.22976E+01     0.00000E+00     0.00000E+00          0.00000E+00
       7047     1.54204E+01     1.22993E+01     0.00000E+00     0.00000E+00          0.00000E+00
       7048     1.54247E+01     1.23011E+01     0.00000E+00     0.00000E+00          0.00000E+00
       7049     1.54291E+01     1.23028E+01     0.00000E+00     0.00000E+00          0.00000E+00
       7050     1.54335E+01     1.23046E+01     0.00000E+00     0.00000E+00          0.00000E+00
       7051     1.54379E+01     1.23063E+01     0.00000E+00     0.00000E+00          0.00000E+00
       7052     1.54422E+01     1.23081E+01     0.00000E+00     0.00000E+00          0.00000E+00
       7053     1.54466E+01     1.23098E+01     0.00000E+00     0.00000E+00          0.00000E+00
       7054     1.54510E+01     1.23116E+01     0.00000E+00     0.00000E+00          0.00000E+00
       7055     1.54554E+01     1.23133E+01     0.00000E+00     0.00000E+00          0.00000E+00
       7056     1.54598E+01     1.23150E+01     0.00000E+00     0.00000E+00          0.00000E+00
       7057     1.54641E+01     1.23168E+01     0.00000E+00     0.00000E+00          0.00000E+00
       7058     1.54685E+01     1.23185E+01     0.00000E+00     0.00000E+00          0.00000E+00
       7059     1.54729E+01     1.23203E+01     0.00000E+00     0.00000E+00          0.00000E+00
       7060     1.54773E+01     1.23220E+01     0.00000E+00     0.00000E+00          0.00000E+00
       7061     1.54817E+01     1.23238E+01     0.00000E+00     0.00000E+00          0.00000E+00
       7062     1.54861E+01     1.23255E+01     0.00000E+00     0.00000E+00          0.00000E+00
       7063     1.54905E+01     1.23273E+01     0.00000E+00     0.00000E+00          0.00000E+00
       7064     1.54948E+01     1.23290E+01     0.00000E+00     0.00000E+00          0.00000E+00
       7065     1.54992E+01     1.23308E+01     0.00000E+00     0.00000E+00          0.00000E+00
       7066     1.55036E+01     1.23325E+01     0.00000E+00     0.00000E+00          0.00000E+00
       7067     1.55080E+01     1.23342E+01     0.00000E+00     0.00000E+00          0.00000E+00
       7068     1.55124E+01     1.23360E+01     0.00000E+00     0.00000E+00          0.00000E+00
       7069     1.55168E+01     1.23377E+01     0.00000E+00     0.00000E+00          0.00000E+00
       7070     1.55212E+01     1.23395E+01     0.00000E+00     0.00000E+00          0.00000E+00
       7071     1.55256E+01     1.23412E+01     0.00000E+00     0.00000E+00          0.00000E+00
       7072     1.55300E+01     1.23430E+01     0.00000E+00     0.00000E+00          0.00000E+00
       7073     1.55343E+01     1.23447E+01     0.00000E+00     0.00000E+00          0.00000E+00
       7074     1.55387E+01     1.23465E+01     0.00000E+00     0.00000E+00          0.00000E+00
       7075     1.55431E+01     1.23482E+01     0.00000E+00     0.00000E+00          0.00000E+00
       7076     1.55475E+01     1.23500E+01     0.00000E+00     0.00000E+00          0.00000E+00
       7077     1.55519E+01     1.23517E+01     0.00000E+00     0.00000E+00          0.00000E+00
       7078     1.55563E+01     1.23534E+01     0.00000E+00     0.00000E+00          0.00000E+00
       7079     1.55607E+01     1.23552E+01     0.00000E+00     0.00000E+00          0.00000E+00
       7080     1.55651E+01     1.23569E+01     0.00000E+00     0.00000E+00          0.00000E+00
       7081     1.55695E+01     1.23587E+01     0.00000E+00     0.00000E+00          0.00000E+00
       7082     1.55739E+01     1.23604E+01     0.00000E+00     0.00000E+00          0.00000E+00
       7083     1.55783E+01     1.23622E+01     0.00000E+00     0.00000E+00          0.00000E+00
       7084     1.55827E+01     1.23639E+01     0.00000E+00     0.00000E+00          0.00000E+00
       7085     1.55871E+01     1.23657E+01     0.00000E+00     0.00000E+00          0.00000E+00
       7086     1.55915E+01     1.23674E+01     0.00000E+00     0.00000E+00          0.00000E+00
       7087     1.55959E+01     1.23691E+01     0.00000E+00     0.00000E+00          0.00000E+00
       7088     1.56003E+01     1.23709E+01     0.00000E+00     0.00000E+00          0.00000E+00
       7089     1.56047E+01     1.23726E+01     0.00000E+00     0.00000E+00          0.00000E+00
       7090     1.56091E+01     1.23744E+01     0.00000E+00     0.00000E+00          0.00000E+00
       7091     1.56135E+01     1.23761E+01     0.00000E+00     0.00000E+00          0.00000E+00
       7092     1.56179E+01     1.23779E+01     0.00000E+00     0.00000E+00          0.00000E+00
       7093     1.56223E+01     1.23796E+01     0.00000E+00     0.00000E+00          0.00000E+00
       7094     1.56267E+01     1.23814E+01     0.00000E+00     0.00000E+00          0.00000E+00
       7095     1.56311E+01     1.23831E+01     0.00000E+00     0.00000E+00          0.00000E+00
       7096     1.56355E+01     1.23849E+01     0.00000E+00     0.00000E+00          0.00000E+00
       7097     1.56400E+01     1.23866E+01     0.00000E+00     0.00000E+00          0.00000E+00
       7098     1.56444E+01     1.23883E+01     0.00000E+00     0.00000E+00          0.00000E+00
       7099     1.56488E+01     1.23901E+01     0.00000E+00     0.00000E+00          0.00000E+00
       7100     1.56532E+01     1.23918E+01     0.00000E+00     0.00000E+00          0.00000E+00
       7101     1.56576E+01     1.23936E+01     0.00000E+00     0.00000E+00          0.00000E+00
       7102     1.56620E+01     1.23953E+01     0.00000E+00     0.00000E+00          0.00000E+00
       7103     1.56664E+01     1.23971E+01     0.00000E+00     0.00000E+00          0.00000E+00
       7104     1.56708E+01     1.23988E+01     0.00000E+00     0.00000E+00          0.00000E+00
       7105     1.56752E+01     1.24006E+01     0.00000E+00     0.00000E+00          0.00000E+00
       7106     1.56796E+01     1.24023E+01     0.00000E+00     0.00000E+00          0.00000E+00
       7107     1.56841E+01     1.24041E+01     0.00000E+00     0.00000E+00          0.00000E+00
       7108     1.56885E+01     1.24058E+01     0.00000E+00     0.00000E+00          0.00000E+00
       7109     1.56929E+01     1.24075E+01     0.00000E+00     0.00000E+00          0.00000E+00
       7110     1.56973E+01     1.24093E+01     0.00000E+00     0.00000E+00          0.00000E+00
       7111     1.57017E+01     1.24110E+01     0.00000E+00     0.00000E+00          0.00000E+00
       7112     1.57061E+01     1.24128E+01     0.00000E+00     0.00000E+00          0.00000E+00
       7113     1.57106E+01     1.24145E+01     0.00000E+00     0.00000E+00          0.00000E+00
       7114     1.57150E+01     1.24163E+01     0.00000E+00     0.00000E+00          0.00000E+00
       7115     1.57194E+01     1.24180E+01     0.00000E+00     0.00000E+00          0.00000E+00
       7116     1.57238E+01     1.24198E+01     0.00000E+00     0.00000E+00          0.00000E+00
       7117     1.57282E+01     1.24215E+01     0.00000E+00     0.00000E+00          0.00000E+00
       7118     1.57326E+01     1.24233E+01     0.00000E+00     0.00000E+00          0.00000E+00
       7119     1.57371E+01     1.24250E+01     0.00000E+00     0.00000E+00          0.00000E+00
       7120     1.57415E+01     1.24267E+01     0.00000E+00     0.00000E+00          0.00000E+00
       7121     1.57459E+01     1.24285E+01     0.00000E+00     0.00000E+00          0.00000E+00
       7122     1.57503E+01     1.24302E+01     0.00000E+00     0.00000E+00          0.00000E+00
       7123     1.57548E+01     1.24320E+01     0.00000E+00     0.00000E+00          0.00000E+00
       7124     1.57592E+01     1.24337E+01     0.00000E+00     0.00000E+00          0.00000E+00
       7125     1.57636E+01     1.24355E+01     0.00000E+00     0.00000E+00          0.00000E+00
       7126     1.57680E+01     1.24372E+01     0.00000E+00     0.00000E+00          0.00000E+00
       7127     1.57725E+01     1.24390E+01     0.00000E+00     0.00000E+00          0.00000E+00
       7128     1.57769E+01     1.24407E+01     0.00000E+00     0.00000E+00          0.00000E+00
       7129     1.57813E+01     1.24425E+01     0.00000E+00     0.00000E+00          0.00000E+00
       7130     1.57857E+01     1.24442E+01     0.00000E+00     0.00000E+00          0.00000E+00
       7131     1.57902E+01     1.24459E+01     0.00000E+00     0.00000E+00          0.00000E+00
       7132     1.57946E+01     1.24477E+01     0.00000E+00     0.00000E+00          0.00000E+00
       7133     1.57990E+01     1.24494E+01     0.00000E+00     0.00000E+00          0.00000E+00
       7134     1.58035E+01     1.24512E+01     0.00000E+00     0.00000E+00          0.00000E+00
       7135     1.58079E+01     1.24529E+01     0.00000E+00     0.00000E+00          0.00000E+00
       7136     1.58123E+01     1.24547E+01     0.00000E+00     0.00000E+00          0.00000E+00
       7137     1.58167E+01     1.24564E+01     0.00000E+00     0.00000E+00          0.00000E+00
       7138     1.58212E+01     1.24582E+01     0.00000E+00     0.00000E+00          0.00000E+00
       7139     1.58256E+01     1.24599E+01     0.00000E+00     0.00000E+00          0.00000E+00
       7140     1.58300E+01     1.24617E+01     0.00000E+00     0.00000E+00          0.00000E+00
       7141     1.58345E+01     1.24634E+01     0.00000E+00     0.00000E+00          0.00000E+00
       7142     1.58389E+01     1.24651E+01     0.00000E+00     0.00000E+00          0.00000E+00
       7143     1.58434E+01     1.24669E+01     0.00000E+00     0.00000E+00          0.00000E+00
       7144     1.58478E+01     1.24686E+01     0.00000E+00     0.00000E+00          0.00000E+00
       7145     1.58522E+01     1.24704E+01     0.00000E+00     0.00000E+00          0.00000E+00
       7146     1.58567E+01     1.24721E+01     0.00000E+00     0.00000E+00          0.00000E+00
       7147     1.58611E+01     1.24739E+01     0.00000E+00     0.00000E+00          0.00000E+00
       7148     1.58655E+01     1.24756E+01     0.00000E+00     0.00000E+00          0.00000E+00
       7149     1.58700E+01     1.24774E+01     0.00000E+00     0.00000E+00          0.00000E+00
       7150     1.58744E+01     1.24791E+01     0.00000E+00     0.00000E+00          0.00000E+00
       7151     1.58789E+01     1.24809E+01     0.00000E+00     0.00000E+00          0.00000E+00
       7152     1.58833E+01     1.24826E+01     0.00000E+00     0.00000E+00          0.00000E+00
       7153     1.58877E+01     1.24843E+01     0.00000E+00     0.00000E+00          0.00000E+00
       7154     1.58922E+01     1.24861E+01     0.00000E+00     0.00000E+00          0.00000E+00
       7155     1.58966E+01     1.24878E+01     0.00000E+00     0.00000E+00          0.00000E+00
       7156     1.59011E+01     1.24896E+01     0.00000E+00     0.00000E+00          0.00000E+00
       7157     1.59055E+01     1.24913E+01     0.00000E+00     0.00000E+00          0.00000E+00
       7158     1.59100E+01     1.24931E+01     0.00000E+00     0.00000E+00          0.00000E+00
       7159     1.59144E+01     1.24948E+01     0.00000E+00     0.00000E+00          0.00000E+00
       7160     1.59189E+01     1.24966E+01     0.00000E+00     0.00000E+00          0.00000E+00
       7161     1.59233E+01     1.24983E+01     0.00000E+00     0.00000E+00          0.00000E+00
       7162     1.59277E+01     1.25000E+01     0.00000E+00     0.00000E+00          0.00000E+00
       7163     1.59322E+01     1.25018E+01     0.00000E+00     0.00000E+00          0.00000E+00
       7164     1.59366E+01     1.25035E+01     0.00000E+00     0.00000E+00          0.00000E+00
       7165     1.59411E+01     1.25053E+01     0.00000E+00     0.00000E+00          0.00000E+00
       7166     1.59455E+01     1.25070E+01     0.00000E+00     0.00000E+00          0.00000E+00
       7167     1.59500E+01     1.25088E+01     0.00000E+00     0.00000E+00          0.00000E+00
       7168     1.59544E+01     1.25105E+01     0.00000E+00     0.00000E+00          0.00000E+00
       7169     1.59589E+01     1.25123E+01     0.00000E+00     0.00000E+00          0.00000E+00
       7170     1.59634E+01     1.25140E+01     0.00000E+00     0.00000E+00          0.00000E+00
       7171     1.59678E+01     1.25158E+01     0.00000E+00     0.00000E+00          0.00000E+00
       7172     1.59723E+01     1.25175E+01     0.00000E+00     0.00000E+00          0.00000E+00
       7173     1.59767E+01     1.25192E+01     0.00000E+00     0.00000E+00          0.00000E+00
       7174     1.59812E+01     1.25210E+01     0.00000E+00     0.00000E+00          0.00000E+00
       7175     1.59856E+01     1.25227E+01     0.00000E+00     0.00000E+00          0.00000E+00
       7176     1.59901E+01     1.25245E+01     0.00000E+00     0.00000E+00          0.00000E+00
       7177     1.59945E+01     1.25262E+01     0.00000E+00     0.00000E+00          0.00000E+00
       7178     1.59990E+01     1.25280E+01     0.00000E+00     0.00000E+00          0.00000E+00
       7179     1.60035E+01     1.25297E+01     0.00000E+00     0.00000E+00          0.00000E+00
       7180     1.60079E+01     1.25315E+01     0.00000E+00     0.00000E+00          0.00000E+00
       7181     1.60124E+01     1.25332E+01     0.00000E+00     0.00000E+00          0.00000E+00
       7182     1.60168E+01     1.25350E+01     0.00000E+00     0.00000E+00          0.00000E+00
       7183     1.60213E+01     1.25367E+01     0.00000E+00     0.00000E+00          0.00000E+00
       7184     1.60258E+01     1.25384E+01     0.00000E+00     0.00000E+00          0.00000E+00
       7185     1.60302E+01     1.25402E+01     0.00000E+00     0.00000E+00          0.00000E+00
       7186     1.60347E+01     1.25419E+01     0.00000E+00     0.00000E+00          0.00000E+00
       7187     1.60391E+01     1.25437E+01     0.00000E+00     0.00000E+00          0.00000E+00
       7188     1.60436E+01     1.25454E+01     0.00000E+00     0.00000E+00          0.00000E+00
       7189     1.60481E+01     1.25472E+01     0.00000E+00     0.00000E+00          0.00000E+00
       7190     1.60525E+01     1.25489E+01     0.00000E+00     0.00000E+00          0.00000E+00
       7191     1.60570E+01     1.25507E+01     0.00000E+00     0.00000E+00          0.00000E+00
       7192     1.60615E+01     1.25524E+01     0.00000E+00     0.00000E+00          0.00000E+00
       7193     1.60659E+01     1.25542E+01     0.00000E+00     0.00000E+00          0.00000E+00
       7194     1.60704E+01     1.25559E+01     0.00000E+00     0.00000E+00          0.00000E+00
       7195     1.60749E+01     1.25576E+01     0.00000E+00     0.00000E+00          0.00000E+00
       7196     1.60793E+01     1.25594E+01     0.00000E+00     0.00000E+00          0.00000E+00
       7197     1.60838E+01     1.25611E+01     0.00000E+00     0.00000E+00          0.00000E+00
       7198     1.60883E+01     1.25629E+01     0.00000E+00     0.00000E+00          0.00000E+00
       7199     1.60927E+01     1.25646E+01     0.00000E+00     0.00000E+00          0.00000E+00
       7200     1.60972E+01     1.25664E+01     0.00000E+00     0.00000E+00          0.00000E+00

This summary file was closed on 05-Nov-2023 at 21:55:55.

