
This summary information was generated by ElastoDyn on 23-Oct-2023 at 23:41:51.


Turbine features:

            Upwind, 3-bladed rotor with rigid hub.
            The model has 21 of 24 DOFs active (enabled) at start-up.
 Enabled    Platform horizontal surge translation DOF 
 Enabled    Platform horizontal sway translation DOF 
 Enabled    Platform vertical heave translation DOF 
 Enabled    Platform roll tilt rotation DOF 
 Enabled    Platform pitch tilt rotation DOF 
 Enabled    Platform yaw rotation DOF 
 Enabled    1st tower fore-aft bending mode DOF 
 Enabled    1st tower side-to-side bending mode DOF 
 Enabled    2nd tower fore-aft bending mode DOF 
 Enabled    2nd tower side-to-side bending mode DOF 
 Enabled    Nacelle yaw DOF 
 Disabled   Rotor-furl DOF 
 Enabled    Variable speed generator DOF 
 Disabled   Drivetrain rotational-flexibility DOF 
 Disabled   Tail-furl DOF 
 Enabled    1st flapwise bending-mode DOF of blade 1 
 Enabled    1st edgewise bending-mode DOF of blade 1 
 Enabled    2nd flapwise bending-mode DOF of blade 1 
 Enabled    1st flapwise bending-mode DOF of blade 2 
 Enabled    1st edgewise bending-mode DOF of blade 2 
 Enabled    2nd flapwise bending-mode DOF of blade 2 
 Enabled    1st flapwise bending-mode DOF of blade 3 
 Enabled    1st edgewise bending-mode DOF of blade 3 
 Enabled    2nd flapwise bending-mode DOF of blade 3 


Time steps:

    Structural            (s)        0.01000000


Some calculated parameters:

    Hub-Height            (m)           175.614
    Flexible Tower Length (m)           150.000
    Flexible Blade Length (m)           140.750


Rotor mass properties:

    Rotor Mass            (kg)       402159.750
    Rotor Inertia         (kg-m^2)585359040.000
                                        Blade 1      Blade 2      Blade 3
                                        -------      -------      -------
    Mass                  (kg)        82414.047    82414.047    82414.047
    Second Mass Moment    (kg-m^2)175987280.000175987280.000175987280.000
    First Mass Moment     (kg-m)    2736475.250  2736475.250  2736475.250
    Center of Mass        (m)            33.204       33.204       33.204


Additional mass properties:

    Tower-top Mass        (kg)      1129807.000
    Tower Mass            (kg)       988563.375
    Platform Mass         (kg)            0.000
    Mass Incl. Platform   (kg)      2118370.500


Interpolated tower properties:

Node  TwFract   HNodes  DHNodes  TMassDen    FAStiff    SSStiff
 (-)      (-)      (m)      (m)    (kg/m)     (Nm^2)     (Nm^2)
   1    0.025    3.750    7.500 10314.845  3.065E+12  3.065E+12
   2    0.075   11.250    7.500 10314.845  3.065E+12  3.065E+12
   3    0.125   18.750    7.500  9506.557  2.817E+12  2.817E+12
   4    0.175   26.250    7.500  9471.354  2.786E+12  2.786E+12
   5    0.225   33.750    7.500  8658.932  2.482E+12  2.482E+12
   6    0.275   41.250    7.500  8446.035  2.304E+12  2.304E+12
   7    0.325   48.750    7.500  7822.553  2.017E+12  2.017E+12
   8    0.375   56.250    7.500  7566.310  1.826E+12  1.826E+12
   9    0.425   63.750    7.500  6960.990  1.564E+12  1.564E+12
  10    0.475   71.250    7.500  6687.708  1.388E+12  1.388E+12
  11    0.525   78.750    7.500  6066.443  1.154E+12  1.154E+12
  12    0.575   86.250    7.500  5777.462  9.983E+11  9.983E+11
  13    0.625   93.750    7.500  5177.829  8.186E+11  8.186E+11
  14    0.675  101.250    7.500  5007.025  7.407E+11  7.407E+11
  15    0.725  108.750    7.500  4312.306  6.063E+11  6.063E+11
  16    0.775  116.250    7.500  4261.866  5.853E+11  5.853E+11
  17    0.825  123.750    7.500  3653.112  4.899E+11  4.899E+11
  18    0.875  131.250    7.500  3605.283  4.710E+11  4.710E+11
  19    0.925  138.750    7.500  4110.334  5.254E+11  5.254E+11
  20    0.975  146.250    7.500  4086.670  5.164E+11  5.164E+11


Interpolated blade 1 properties:

Node  BlFract   RNodes  DRNodes PitchAxis  StrcTwst  BMassDen    FlpStff    EdgStff
 (-)      (-)      (m)      (m)       (-)     (deg)    (kg/m)     (Nm^2)     (Nm^2)
   1    0.010    4.807    2.815     0.497    15.591  3022.225  1.458E+11  1.452E+11
   2    0.030    7.622    2.815     0.482    15.505  2687.669  1.310E+11  1.308E+11
   3    0.050   10.438    2.815     0.464    15.203  2335.322  1.110E+11  1.141E+11
   4    0.070   13.253    2.815     0.446    14.652  1974.944  8.755E+10  9.490E+10
   5    0.090   16.067    2.815     0.427    13.905  1733.741  6.734E+10  8.040E+10
   6    0.110   18.882    2.815     0.409    13.017  1558.399  5.149E+10  7.066E+10
   7    0.130   21.698    2.815     0.392    12.042  1283.429  4.020E+10  6.091E+10
   8    0.150   24.513    2.815     0.376    11.036  1053.314  3.343E+10  5.330E+10
   9    0.170   27.328    2.815     0.361    10.052   864.364  2.973E+10  4.646E+10
  10    0.190   30.143    2.815     0.348     9.140   724.542  2.674E+10  4.090E+10
  11    0.210   32.958    2.815     0.337     8.343   630.054  2.368E+10  3.687E+10
  12    0.230   35.773    2.815     0.329     7.660   570.091  2.066E+10  3.396E+10
  13    0.250   38.588    2.815     0.323     7.031   531.455  1.810E+10  3.175E+10
  14    0.270   41.403    2.815     0.318     6.410   505.570  1.596E+10  2.994E+10
  15    0.290   44.217    2.815     0.314     5.811   491.523  1.464E+10  2.836E+10
  16    0.310   47.032    2.815     0.311     5.242   485.915  1.395E+10  2.689E+10
  17    0.330   49.847    2.815     0.308     4.711   481.202  1.319E+10  2.536E+10
  18    0.350   52.662    2.815     0.306     4.229   474.925  1.190E+10  2.385E+10
  19    0.370   55.477    2.815     0.304     3.795   466.665  1.043E+10  2.247E+10
  20    0.390   58.292    2.815     0.302     3.405   458.218  9.346E+09  2.129E+10
  21    0.410   61.107    2.815     0.299     3.046   450.061  8.626E+09  2.021E+10
  22    0.430   63.922    2.815     0.296     2.711   441.528  8.045E+09  1.919E+10
  23    0.450   66.737    2.815     0.294     2.397   432.070  7.386E+09  1.815E+10
  24    0.470   69.552    2.815     0.292     2.103   421.656  6.506E+09  1.714E+10
  25    0.490   72.367    2.815     0.290     1.826   411.153  5.628E+09  1.616E+10
  26    0.510   75.182    2.815     0.289     1.561   401.347  4.932E+09  1.523E+10
  27    0.530   77.997    2.815     0.288     1.310   392.323  4.418E+09  1.436E+10
  28    0.550   80.812    2.815     0.288     1.076   383.137  3.964E+09  1.349E+10
  29    0.570   83.628    2.815     0.288     0.859   362.764  3.462E+09  1.153E+10
  30    0.590   86.443    2.815     0.288     0.655   341.792  3.008E+09  9.643E+09
  31    0.610   89.258    2.815     0.289     0.459   319.804  2.639E+09  7.804E+09
  32    0.630   92.073    2.815     0.291     0.265   297.132  2.339E+09  6.039E+09
  33    0.650   94.888    2.815     0.293     0.070   275.260  2.067E+09  4.514E+09
  34    0.670   97.703    2.815     0.295    -0.137   258.969  1.797E+09  3.666E+09
  35    0.690  100.518    2.815     0.297    -0.363   242.595  1.532E+09  2.988E+09
  36    0.710  103.333    2.815     0.300    -0.623   225.773  1.279E+09  2.505E+09
  37    0.730  106.148    2.815     0.303    -0.926   206.742  1.045E+09  2.140E+09
  38    0.750  108.963    2.815     0.306    -1.240   185.950  8.453E+08  1.798E+09
  39    0.770  111.778    2.815     0.309    -1.542   163.842  6.808E+08  1.443E+09
  40    0.790  114.593    2.815     0.312    -1.809   141.915  5.411E+08  1.110E+09
  41    0.810  117.408    2.815     0.315    -2.024   119.336  4.203E+08  8.537E+08
  42    0.830  120.223    2.815     0.319    -2.138   100.159  3.224E+08  6.772E+08
  43    0.850  123.038    2.815     0.323    -2.172    83.707  2.475E+08  5.345E+08
  44    0.870  125.853    2.815     0.328    -2.163    69.391  1.870E+08  4.160E+08
  45    0.890  128.668    2.815     0.333    -2.123    57.688  1.365E+08  3.244E+08
  46    0.910  131.483    2.815     0.338    -2.053    48.168  9.503E+07  2.518E+08
  47    0.930  134.298    2.815     0.344    -1.949    40.054  6.210E+07  1.893E+08
  48    0.950  137.113    2.815     0.350    -1.802    31.294  3.724E+07  1.320E+08
  49    0.970  139.928    2.815     0.357    -1.610    24.064  1.977E+07  8.561E+07
  50    0.990  142.743    2.815     0.364    -1.373    13.511  6.448E+06  3.375E+07


Interpolated blade 2 properties:

Node  BlFract   RNodes  DRNodes PitchAxis  StrcTwst  BMassDen    FlpStff    EdgStff
 (-)      (-)      (m)      (m)       (-)     (deg)    (kg/m)     (Nm^2)     (Nm^2)
   1    0.010    4.807    2.815     0.497    15.591  3022.225  1.458E+11  1.452E+11
   2    0.030    7.622    2.815     0.482    15.505  2687.669  1.310E+11  1.308E+11
   3    0.050   10.438    2.815     0.464    15.203  2335.322  1.110E+11  1.141E+11
   4    0.070   13.253    2.815     0.446    14.652  1974.944  8.755E+10  9.490E+10
   5    0.090   16.067    2.815     0.427    13.905  1733.741  6.734E+10  8.040E+10
   6    0.110   18.882    2.815     0.409    13.017  1558.399  5.149E+10  7.066E+10
   7    0.130   21.698    2.815     0.392    12.042  1283.429  4.020E+10  6.091E+10
   8    0.150   24.513    2.815     0.376    11.036  1053.314  3.343E+10  5.330E+10
   9    0.170   27.328    2.815     0.361    10.052   864.364  2.973E+10  4.646E+10
  10    0.190   30.143    2.815     0.348     9.140   724.542  2.674E+10  4.090E+10
  11    0.210   32.958    2.815     0.337     8.343   630.054  2.368E+10  3.687E+10
  12    0.230   35.773    2.815     0.329     7.660   570.091  2.066E+10  3.396E+10
  13    0.250   38.588    2.815     0.323     7.031   531.455  1.810E+10  3.175E+10
  14    0.270   41.403    2.815     0.318     6.410   505.570  1.596E+10  2.994E+10
  15    0.290   44.217    2.815     0.314     5.811   491.523  1.464E+10  2.836E+10
  16    0.310   47.032    2.815     0.311     5.242   485.915  1.395E+10  2.689E+10
  17    0.330   49.847    2.815     0.308     4.711   481.202  1.319E+10  2.536E+10
  18    0.350   52.662    2.815     0.306     4.229   474.925  1.190E+10  2.385E+10
  19    0.370   55.477    2.815     0.304     3.795   466.665  1.043E+10  2.247E+10
  20    0.390   58.292    2.815     0.302     3.405   458.218  9.346E+09  2.129E+10
  21    0.410   61.107    2.815     0.299     3.046   450.061  8.626E+09  2.021E+10
  22    0.430   63.922    2.815     0.296     2.711   441.528  8.045E+09  1.919E+10
  23    0.450   66.737    2.815     0.294     2.397   432.070  7.386E+09  1.815E+10
  24    0.470   69.552    2.815     0.292     2.103   421.656  6.506E+09  1.714E+10
  25    0.490   72.367    2.815     0.290     1.826   411.153  5.628E+09  1.616E+10
  26    0.510   75.182    2.815     0.289     1.561   401.347  4.932E+09  1.523E+10
  27    0.530   77.997    2.815     0.288     1.310   392.323  4.418E+09  1.436E+10
  28    0.550   80.812    2.815     0.288     1.076   383.137  3.964E+09  1.349E+10
  29    0.570   83.628    2.815     0.288     0.859   362.764  3.462E+09  1.153E+10
  30    0.590   86.443    2.815     0.288     0.655   341.792  3.008E+09  9.643E+09
  31    0.610   89.258    2.815     0.289     0.459   319.804  2.639E+09  7.804E+09
  32    0.630   92.073    2.815     0.291     0.265   297.132  2.339E+09  6.039E+09
  33    0.650   94.888    2.815     0.293     0.070   275.260  2.067E+09  4.514E+09
  34    0.670   97.703    2.815     0.295    -0.137   258.969  1.797E+09  3.666E+09
  35    0.690  100.518    2.815     0.297    -0.363   242.595  1.532E+09  2.988E+09
  36    0.710  103.333    2.815     0.300    -0.623   225.773  1.279E+09  2.505E+09
  37    0.730  106.148    2.815     0.303    -0.926   206.742  1.045E+09  2.140E+09
  38    0.750  108.963    2.815     0.306    -1.240   185.950  8.453E+08  1.798E+09
  39    0.770  111.778    2.815     0.309    -1.542   163.842  6.808E+08  1.443E+09
  40    0.790  114.593    2.815     0.312    -1.809   141.915  5.411E+08  1.110E+09
  41    0.810  117.408    2.815     0.315    -2.024   119.336  4.203E+08  8.537E+08
  42    0.830  120.223    2.815     0.319    -2.138   100.159  3.224E+08  6.772E+08
  43    0.850  123.038    2.815     0.323    -2.172    83.707  2.475E+08  5.345E+08
  44    0.870  125.853    2.815     0.328    -2.163    69.391  1.870E+08  4.160E+08
  45    0.890  128.668    2.815     0.333    -2.123    57.688  1.365E+08  3.244E+08
  46    0.910  131.483    2.815     0.338    -2.053    48.168  9.503E+07  2.518E+08
  47    0.930  134.298    2.815     0.344    -1.949    40.054  6.210E+07  1.893E+08
  48    0.950  137.113    2.815     0.350    -1.802    31.294  3.724E+07  1.320E+08
  49    0.970  139.928    2.815     0.357    -1.610    24.064  1.977E+07  8.561E+07
  50    0.990  142.743    2.815     0.364    -1.373    13.511  6.448E+06  3.375E+07


Interpolated blade 3 properties:

Node  BlFract   RNodes  DRNodes PitchAxis  StrcTwst  BMassDen    FlpStff    EdgStff
 (-)      (-)      (m)      (m)       (-)     (deg)    (kg/m)     (Nm^2)     (Nm^2)
   1    0.010    4.807    2.815     0.497    15.591  3022.225  1.458E+11  1.452E+11
   2    0.030    7.622    2.815     0.482    15.505  2687.669  1.310E+11  1.308E+11
   3    0.050   10.438    2.815     0.464    15.203  2335.322  1.110E+11  1.141E+11
   4    0.070   13.253    2.815     0.446    14.652  1974.944  8.755E+10  9.490E+10
   5    0.090   16.067    2.815     0.427    13.905  1733.741  6.734E+10  8.040E+10
   6    0.110   18.882    2.815     0.409    13.017  1558.399  5.149E+10  7.066E+10
   7    0.130   21.698    2.815     0.392    12.042  1283.429  4.020E+10  6.091E+10
   8    0.150   24.513    2.815     0.376    11.036  1053.314  3.343E+10  5.330E+10
   9    0.170   27.328    2.815     0.361    10.052   864.364  2.973E+10  4.646E+10
  10    0.190   30.143    2.815     0.348     9.140   724.542  2.674E+10  4.090E+10
  11    0.210   32.958    2.815     0.337     8.343   630.054  2.368E+10  3.687E+10
  12    0.230   35.773    2.815     0.329     7.660   570.091  2.066E+10  3.396E+10
  13    0.250   38.588    2.815     0.323     7.031   531.455  1.810E+10  3.175E+10
  14    0.270   41.403    2.815     0.318     6.410   505.570  1.596E+10  2.994E+10
  15    0.290   44.217    2.815     0.314     5.811   491.523  1.464E+10  2.836E+10
  16    0.310   47.032    2.815     0.311     5.242   485.915  1.395E+10  2.689E+10
  17    0.330   49.847    2.815     0.308     4.711   481.202  1.319E+10  2.536E+10
  18    0.350   52.662    2.815     0.306     4.229   474.925  1.190E+10  2.385E+10
  19    0.370   55.477    2.815     0.304     3.795   466.665  1.043E+10  2.247E+10
  20    0.390   58.292    2.815     0.302     3.405   458.218  9.346E+09  2.129E+10
  21    0.410   61.107    2.815     0.299     3.046   450.061  8.626E+09  2.021E+10
  22    0.430   63.922    2.815     0.296     2.711   441.528  8.045E+09  1.919E+10
  23    0.450   66.737    2.815     0.294     2.397   432.070  7.386E+09  1.815E+10
  24    0.470   69.552    2.815     0.292     2.103   421.656  6.506E+09  1.714E+10
  25    0.490   72.367    2.815     0.290     1.826   411.153  5.628E+09  1.616E+10
  26    0.510   75.182    2.815     0.289     1.561   401.347  4.932E+09  1.523E+10
  27    0.530   77.997    2.815     0.288     1.310   392.323  4.418E+09  1.436E+10
  28    0.550   80.812    2.815     0.288     1.076   383.137  3.964E+09  1.349E+10
  29    0.570   83.628    2.815     0.288     0.859   362.764  3.462E+09  1.153E+10
  30    0.590   86.443    2.815     0.288     0.655   341.792  3.008E+09  9.643E+09
  31    0.610   89.258    2.815     0.289     0.459   319.804  2.639E+09  7.804E+09
  32    0.630   92.073    2.815     0.291     0.265   297.132  2.339E+09  6.039E+09
  33    0.650   94.888    2.815     0.293     0.070   275.260  2.067E+09  4.514E+09
  34    0.670   97.703    2.815     0.295    -0.137   258.969  1.797E+09  3.666E+09
  35    0.690  100.518    2.815     0.297    -0.363   242.595  1.532E+09  2.988E+09
  36    0.710  103.333    2.815     0.300    -0.623   225.773  1.279E+09  2.505E+09
  37    0.730  106.148    2.815     0.303    -0.926   206.742  1.045E+09  2.140E+09
  38    0.750  108.963    2.815     0.306    -1.240   185.950  8.453E+08  1.798E+09
  39    0.770  111.778    2.815     0.309    -1.542   163.842  6.808E+08  1.443E+09
  40    0.790  114.593    2.815     0.312    -1.809   141.915  5.411E+08  1.110E+09
  41    0.810  117.408    2.815     0.315    -2.024   119.336  4.203E+08  8.537E+08
  42    0.830  120.223    2.815     0.319    -2.138   100.159  3.224E+08  6.772E+08
  43    0.850  123.038    2.815     0.323    -2.172    83.707  2.475E+08  5.345E+08
  44    0.870  125.853    2.815     0.328    -2.163    69.391  1.870E+08  4.160E+08
  45    0.890  128.668    2.815     0.333    -2.123    57.688  1.365E+08  3.244E+08
  46    0.910  131.483    2.815     0.338    -2.053    48.168  9.503E+07  2.518E+08
  47    0.930  134.298    2.815     0.344    -1.949    40.054  6.210E+07  1.893E+08
  48    0.950  137.113    2.815     0.350    -1.802    31.294  3.724E+07  1.320E+08
  49    0.970  139.928    2.815     0.357    -1.610    24.064  1.977E+07  8.561E+07
  50    0.990  142.743    2.815     0.364    -1.373    13.511  6.448E+06  3.375E+07


Requested Outputs:


 Col   Parameter            Units               
 ---   ---------------      ---------------     
   0   Time                 (s)                 
   1   BldPitch1            (deg)               
   2   BldPitch2            (deg)               
   3   BldPitch3            (deg)               
   4   Azimuth              (deg)               
   5   RotSpeed             (rpm)               
   6   RotTorq              (kN-m)              
   7   RotPwr               (kW)                
   8   HSSBrTq              (kN-m)              
   9   Tip2Twr1             (m)                 
  10   Tip2Twr2             (m)                 
  11   Tip2Twr3             (m)                 
  12   RootFxb1             (kN)                
  13   RootFyb1             (kN)                
  14   RootFzb1             (kN)                
  15   RootMEdg1            (kN-m)              
  16   RootMFlp1            (kN-m)              
  17   RootMzb1             (kN-m)              
  18   RootFxc1             (kN)                
  19   RootFyc1             (kN)                
  20   RootFzc1             (kN)                
  21   RootMzc1             (kN-m)              
  22   RootMzc2             (kN-m)              
  23   RootMzc3             (kN-m)              
  24   RootMIP1             (kN-m)              
  25   RootMOoP1            (kN-m)              
  26   RotThrust            (kN)                
  27   LSShftFya            (kN)                
  28   LSShftFza            (kN)                
  29   LSShftMxa            (kN-m)              
  30   LSSTipMya            (kN-m)              
  31   LSSTipMza            (kN-m)              
  32   LSShftFys            (kN)                
  33   LSShftFzs            (kN)                
  34   LSSTipMys            (kN-m)              
  35   LSSTipMzs            (kN-m)              
  36   YawBrFxp             (kN)                
  37   YawBrFyp             (kN)                
  38   YawBrFzp             (kN)                
  39   YawBrMxp             (kN-m)              
  40   YawBrMyp             (kN-m)              
  41   YawBrMzp             (kN-m)              
  42   YawBrRDyt            (deg)               
  43   NcIMUTAxs            (m/s^2)             
  44   NcIMUTAys            (m/s^2)             
  45   NcIMUTAzs            (m/s^2)             
  46   TwrBsFxt             (kN)                
  47   TwrBsFyt             (kN)                
  48   TwrBsFzt             (kN)                
  49   TwrBsMxt             (kN-m)              
  50   TwrBsMyt             (kN-m)              
  51   TwrBsMzt             (kN-m)              
  52   PtfmSurge            (m)                 
  53   PtfmSway             (m)                 
  54   PtfmHeave            (m)                 
  55   PtfmRoll             (deg)               
  56   PtfmPitch            (deg)               
  57   PtfmYaw              (deg)               


  Requested Output Channels at each blade station:
 Col   Parameter            Units               
 ---   ---------------      ---------------     
